3553031
  -OEChem-01171812113D

 63 66  0     0  0  0  0  0  0999 V2000
    0.5664   -2.8851   -0.2397 S   0  0  0  0  0  0  0  0  0  0  0  0
   -2.4221    4.6630   -0.3825 O   0  0  0  0  0  0  0  0  0  0  0  0
    3.1469    2.4369   -0.3341 O   0  0  0  0  0  0  0  0  0  0  0  0
   -2.6273    4.2728    1.8606 O   0  0  0  0  0  0  0  0  0  0  0  0
    3.4934   -2.8255    0.5516 O   0  0  0  0  0  0  0  0  0  0  0  0
    0.8887   -2.5293   -1.6088 O   0  0  0  0  0  0  0  0  0  0  0  0
    1.0150   -4.1498    0.3115 O   0  0  0  0  0  0  0  0  0  0  0  0
   -6.0330   -1.2313   -1.4130 O   0  0  0  0  0  0  0  0  0  0  0  0
    0.8506    1.1558    0.3101 N   0  0  0  0  0  0  0  0  0  0  0  0
   -0.8390    3.3737    0.6813 N   0  0  0  0  0  0  0  0  0  0  0  0
    1.0020   -1.6242    0.7963 N   0  0  0  0  0  0  0  0  0  0  0  0
   -5.3614   -2.7200    0.2875 N   0  0  0  0  0  0  0  0  0  0  0  0
    0.2452    1.7894   -0.8640 C   0  0  0  0  0  0  0  0  0  0  0  0
    0.0624    1.2498    1.5412 C   0  0  0  0  0  0  0  0  0  0  0  0
   -0.0666    3.2535   -0.5603 C   0  0  0  0  0  0  0  0  0  0  0  0
   -0.2475    2.7136    1.8452 C   0  0  0  0  0  0  0  0  0  0  0  0
    2.0055    0.4336    0.2357 C   0  0  0  0  0  0  0  0  0  0  0  0
    2.1533   -0.8808    0.4483 C   0  0  0  0  0  0  0  0  0  0  0  0
    3.2199    1.2288   -0.1300 C   0  0  0  0  0  0  0  0  0  0  0  0
    4.5194    0.5339   -0.2453 C   0  0  0  0  0  0  0  0  0  0  0  0
   -2.0149    4.1169    0.8058 C   0  0  0  0  0  0  0  0  0  0  0  0
    3.4272   -1.6201    0.3456 C   0  0  0  0  0  0  0  0  0  0  0  0
    4.6209   -0.8385   -0.0169 C   0  0  0  0  0  0  0  0  0  0  0  0
    5.6629    1.2661   -0.5896 C   0  0  0  0  0  0  0  0  0  0  0  0
    5.8598   -1.4804   -0.1311 C   0  0  0  0  0  0  0  0  0  0  0  0
   -1.1946   -2.8359   -0.0831 C   0  0  0  0  0  0  0  0  0  0  0  0
    6.8968    0.6242   -0.7031 C   0  0  0  0  0  0  0  0  0  0  0  0
    6.9951   -0.7465   -0.4743 C   0  0  0  0  0  0  0  0  0  0  0  0
   -3.6227    5.4430   -0.3400 C   0  0  0  0  0  0  0  0  0  0  0  0
   -1.9493   -2.0382   -0.9432 C   0  0  0  0  0  0  0  0  0  0  0  0
   -1.8286   -3.5948    0.9007 C   0  0  0  0  0  0  0  0  0  0  0  0
   -3.3381   -1.9995   -0.8196 C   0  0  0  0  0  0  0  0  0  0  0  0
   -3.2174   -3.5561    1.0243 C   0  0  0  0  0  0  0  0  0  0  0  0
   -3.9722   -2.7585    0.1641 C   0  0  0  0  0  0  0  0  0  0  0  0
   -3.9212    5.9647   -1.7293 C   0  0  0  0  0  0  0  0  0  0  0  0
   -6.2779   -1.9858   -0.4772 C   0  0  0  0  0  0  0  0  0  0  0  0
   -7.6974   -2.2195   -0.0249 C   0  0  0  0  0  0  0  0  0  0  0  0
    0.8967    1.7243   -1.7434 H   0  0  0  0  0  0  0  0  0  0  0  0
   -0.6802    1.2550   -1.1126 H   0  0  0  0  0  0  0  0  0  0  0  0
   -0.8791    0.7012    1.4129 H   0  0  0  0  0  0  0  0  0  0  0  0
    0.5932    0.8156    2.3970 H   0  0  0  0  0  0  0  0  0  0  0  0
    0.8564    3.8260   -0.4141 H   0  0  0  0  0  0  0  0  0  0  0  0
   -0.5963    3.6997   -1.4063 H   0  0  0  0  0  0  0  0  0  0  0  0
   -0.9117    2.7846    2.7122 H   0  0  0  0  0  0  0  0  0  0  0  0
    0.6740    3.2571    2.0869 H   0  0  0  0  0  0  0  0  0  0  0  0
    0.2195   -1.0726    1.1592 H   0  0  0  0  0  0  0  0  0  0  0  0
    5.6145    2.3360   -0.7736 H   0  0  0  0  0  0  0  0  0  0  0  0
    5.9604   -2.5485    0.0425 H   0  0  0  0  0  0  0  0  0  0  0  0
    7.7818    1.1945   -0.9702 H   0  0  0  0  0  0  0  0  0  0  0  0
    7.9565   -1.2441   -0.5632 H   0  0  0  0  0  0  0  0  0  0  0  0
   -4.4524    4.8166    0.0063 H   0  0  0  0  0  0  0  0  0  0  0  0
   -3.4874    6.2834    0.3498 H   0  0  0  0  0  0  0  0  0  0  0  0
   -1.4736   -1.4334   -1.7102 H   0  0  0  0  0  0  0  0  0  0  0  0
   -1.2595   -4.2172    1.5853 H   0  0  0  0  0  0  0  0  0  0  0  0
   -3.8539   -1.3570   -1.5194 H   0  0  0  0  0  0  0  0  0  0  0  0
   -3.6983   -4.1514    1.7964 H   0  0  0  0  0  0  0  0  0  0  0  0
   -4.8344    6.5664   -1.7336 H   0  0  0  0  0  0  0  0  0  0  0  0
   -4.0405    5.1357   -2.4347 H   0  0  0  0  0  0  0  0  0  0  0  0
   -3.0918    6.5777   -2.0970 H   0  0  0  0  0  0  0  0  0  0  0  0
   -5.7477   -3.3010    1.0288 H   0  0  0  0  0  0  0  0  0  0  0  0
   -8.3820   -1.6122   -0.6234 H   0  0  0  0  0  0  0  0  0  0  0  0
   -7.9559   -3.2748   -0.1500 H   0  0  0  0  0  0  0  0  0  0  0  0
   -7.8028   -1.9394    1.0270 H   0  0  0  0  0  0  0  0  0  0  0  0
  1  6  2  0  0  0  0
  1  7  2  0  0  0  0
  1 11  1  0  0  0  0
  1 26  1  0  0  0  0
  2 21  1  0  0  0  0
  2 29  1  0  0  0  0
  3 19  2  0  0  0  0
  4 21  2  0  0  0  0
  5 22  2  0  0  0  0
  8 36  2  0  0  0  0
  9 13  1  0  0  0  0
  9 14  1  0  0  0  0
  9 17  1  0  0  0  0
 10 15  1  0  0  0  0
 10 16  1  0  0  0  0
 10 21  1  0  0  0  0
 11 18  1  0  0  0  0
 11 46  1  0  0  0  0
 12 34  1  0  0  0  0
 12 36  1  0  0  0  0
 12 60  1  0  0  0  0
 13 15  1  0  0  0  0
 13 38  1  0  0  0  0
 13 39  1  0  0  0  0
 14 16  1  0  0  0  0
 14 40  1  0  0  0  0
 14 41  1  0  0  0  0
 15 42  1  0  0  0  0
 15 43  1  0  0  0  0
 16 44  1  0  0  0  0
 16 45  1  0  0  0  0
 17 18  2  0  0  0  0
 17 19  1  0  0  0  0
 18 22  1  0  0  0  0
 19 20  1  0  0  0  0
 20 23  1  0  0  0  0
 20 24  2  0  0  0  0
 22 23  1  0  0  0  0
 23 25  2  0  0  0  0
 24 27  1  0  0  0  0
 24 47  1  0  0  0  0
 25 28  1  0  0  0  0
 25 48  1  0  0  0  0
 26 30  2  0  0  0  0
 26 31  1  0  0  0  0
 27 28  2  0  0  0  0
 27 49  1  0  0  0  0
 28 50  1  0  0  0  0
 29 35  1  0  0  0  0
 29 51  1  0  0  0  0
 29 52  1  0  0  0  0
 30 32  1  0  0  0  0
 30 53  1  0  0  0  0
 31 33  2  0  0  0  0
 31 54  1  0  0  0  0
 32 34  2  0  0  0  0
 32 55  1  0  0  0  0
 33 34  1  0  0  0  0
 33 56  1  0  0  0  0
 35 57  1  0  0  0  0
 35 58  1  0  0  0  0
 35 59  1  0  0  0  0
 36 37  1  0  0  0  0
 37 61  1  0  0  0  0
 37 62  1  0  0  0  0
 37 63  1  0  0  0  0
M  END
> <PUBCHEM_COMPOUND_CID>
3553031

> <PUBCHEM_CONFORMER_RMSD>
1

> <PUBCHEM_CONFORMER_DIVERSEORDER>
1
48
5
45
19
23
11
25
20
42
33
14
8
10
41
6
18
37
43
29
16
47
27
28
35
24
36
13
17
26
12
7
21
40
38
44
9
15
39
32
34
30
31
46
3
2
22
4

> <PUBCHEM_MMFF94_PARTIAL_CHARGES>
46
1 1.45
10 -0.66
11 -0.75
12 -0.55
13 0.37
14 0.37
15 0.3
16 0.3
17 0.11
18 0.21
19 0.47
2 -0.43
20 0.09
21 0.78
22 0.47
23 0.09
24 -0.15
25 -0.15
26 -0.01
27 -0.15
28 -0.15
29 0.28
3 -0.57
30 -0.15
31 -0.15
32 -0.15
33 -0.15
34 0.12
36 0.57
37 0.06
4 -0.57
46 0.42
47 0.15
48 0.15
49 0.15
5 -0.57
50 0.15
53 0.15
54 0.15
55 0.15
56 0.15
6 -0.65
60 0.37
7 -0.65
8 -0.57
9 -0.84

> <PUBCHEM_EFFECTIVE_ROTOR_COUNT>
10.2

> <PUBCHEM_PHARMACOPHORE_FEATURES>
13
1 11 donor
1 12 donor
1 3 acceptor
1 4 acceptor
1 5 acceptor
1 6 acceptor
1 7 acceptor
1 8 acceptor
1 9 cation
6 17 18 19 20 22 23 rings
6 20 23 24 25 27 28 rings
6 26 30 31 32 33 34 rings
6 9 10 13 14 15 16 rings

> <PUBCHEM_HEAVY_ATOM_COUNT>
37

> <PUBCHEM_ATOM_DEF_STEREO_COUNT>
0

> <PUBCHEM_ATOM_UDEF_STEREO_COUNT>
0

> <PUBCHEM_BOND_DEF_STEREO_COUNT>
0

> <PUBCHEM_BOND_UDEF_STEREO_COUNT>
0

> <PUBCHEM_ISOTOPIC_ATOM_COUNT>
0

> <PUBCHEM_COMPONENT_COUNT>
1

> <PUBCHEM_CACTVS_TAUTO_COUNT>
6

> <PUBCHEM_CONFORMER_ID>
0036370700000001

> <PUBCHEM_MMFF94_ENERGY>
97.968

> <PUBCHEM_FEATURE_SELFOVERLAP>
66.017

> <PUBCHEM_SHAPE_FINGERPRINT>
10190206 1 18408893927896383566
10675989 125 18049160261786107052
12156800 1 18125192405405177604
12166972 35 17843124972258643715
12440605 4 18267033747495450298
12788726 201 18410851071294610666
14028597 1 17823115952856538282
14068700 675 17488747899470340275
14681490 219 18412542136867408055
15276724 80 18341619222160645870
15351339 4 18261658312989147827
15400415 2 17689994540164521037
15483637 11 18265613183072707013
15927050 60 18052263890377737671
15968369 153 18129926971056693688
16087824 20 18410859892898473123
16988056 13 17907005528537923053
16993438 75 18262243205772163993
17138139 8 17554568887367353277
20642791 105 18340198597450658528
20775438 99 17481417184327175607
21133410 127 16818536404078752357
21133410 90 17132111364905743297
23516275 137 16198180522536089077
23559900 14 18122056765979359315
23576562 1 18262816090528442284
24893992 56 18337954623458763731
3103668 31 18409730647328535101
38695281 34 17977106752145961712
46939830 39 18042689592706220685
50150288 127 17557975161848023533
58902169 19 17844803892840198703
6086070 43 18125151886916782775

> <PUBCHEM_SHAPE_MULTIPOLES>
704.28
14.88
8.12
1.27
1.05
12.05
0.16
-7.49
-4.17
-13.97
-0.28
-0.85
0.88
0.31

> <PUBCHEM_SHAPE_SELFOVERLAP>
1504.364

> <PUBCHEM_SHAPE_VOLUME>
389.6

> <PUBCHEM_COORDINATE_TYPE>
2
5
10

$$$$
