947920
  -OEChem-01171812003D

 42 44  0     0  0  0  0  0  0999 V2000
   -7.0768   -0.5227   -0.6625 F   0  0  0  0  0  0  0  0  0  0  0  0
    1.0849    0.7038    0.7280 N   0  0  0  0  0  0  0  0  0  0  0  0
   -1.6792    0.4342    0.3152 N   0  0  0  0  0  0  0  0  0  0  0  0
    2.1005   -1.4216    0.3786 N   0  0  0  0  0  0  0  0  0  0  0  0
    3.4947    3.1717   -0.1706 N   0  0  0  0  0  0  0  0  0  0  0  0
    0.4124    1.6391   -0.1741 C   0  0  0  0  0  0  0  0  0  0  0  0
    0.2489    0.2880    1.8574 C   0  0  0  0  0  0  0  0  0  0  0  0
   -0.8347    0.9756   -0.7617 C   0  0  0  0  0  0  0  0  0  0  0  0
   -1.0044   -0.4101    1.3176 C   0  0  0  0  0  0  0  0  0  0  0  0
    2.1850   -0.0512    0.3364 C   0  0  0  0  0  0  0  0  0  0  0  0
   -3.0363    0.1932    0.0692 C   0  0  0  0  0  0  0  0  0  0  0  0
    3.3654    0.5829   -0.0974 C   0  0  0  0  0  0  0  0  0  0  0  0
   -3.5005   -0.1550   -1.2209 C   0  0  0  0  0  0  0  0  0  0  0  0
   -3.9999    0.2883    1.1010 C   0  0  0  0  0  0  0  0  0  0  0  0
    4.4551   -0.1883   -0.4866 C   0  0  0  0  0  0  0  0  0  0  0  0
    3.1801   -2.1381   -0.0072 C   0  0  0  0  0  0  0  0  0  0  0  0
    4.3688   -1.5754   -0.4436 C   0  0  0  0  0  0  0  0  0  0  0  0
   -4.8529   -0.3944   -1.4659 C   0  0  0  0  0  0  0  0  0  0  0  0
   -5.3520    0.0489    0.8560 C   0  0  0  0  0  0  0  0  0  0  0  0
    5.7312    0.4335   -0.9553 C   0  0  0  0  0  0  0  0  0  0  0  0
   -5.7785   -0.2925   -0.4274 C   0  0  0  0  0  0  0  0  0  0  0  0
    3.0511   -3.6235    0.0516 C   0  0  0  0  0  0  0  0  0  0  0  0
    3.4370    2.0135   -0.1380 C   0  0  0  0  0  0  0  0  0  0  0  0
    1.0421    1.9650   -1.0071 H   0  0  0  0  0  0  0  0  0  0  0  0
    0.1276    2.5378    0.3872 H   0  0  0  0  0  0  0  0  0  0  0  0
   -0.0414    1.1765    2.4320 H   0  0  0  0  0  0  0  0  0  0  0  0
    0.7930   -0.3705    2.5447 H   0  0  0  0  0  0  0  0  0  0  0  0
   -1.3811    1.7271   -1.3446 H   0  0  0  0  0  0  0  0  0  0  0  0
   -0.5388    0.1643   -1.4386 H   0  0  0  0  0  0  0  0  0  0  0  0
   -0.7379   -1.3674    0.8525 H   0  0  0  0  0  0  0  0  0  0  0  0
   -1.6604   -0.6340    2.1664 H   0  0  0  0  0  0  0  0  0  0  0  0
   -2.8078   -0.2567   -2.0529 H   0  0  0  0  0  0  0  0  0  0  0  0
   -3.6945    0.5660    2.1077 H   0  0  0  0  0  0  0  0  0  0  0  0
    5.2026   -2.2033   -0.7412 H   0  0  0  0  0  0  0  0  0  0  0  0
   -5.1853   -0.6630   -2.4643 H   0  0  0  0  0  0  0  0  0  0  0  0
   -6.0734    0.1308    1.6635 H   0  0  0  0  0  0  0  0  0  0  0  0
    6.4799   -0.3216   -1.2193 H   0  0  0  0  0  0  0  0  0  0  0  0
    5.5569    1.0420   -1.8490 H   0  0  0  0  0  0  0  0  0  0  0  0
    6.1663    1.0586   -0.1684 H   0  0  0  0  0  0  0  0  0  0  0  0
    2.0606   -3.9181    0.4141 H   0  0  0  0  0  0  0  0  0  0  0  0
    3.1888   -4.0574   -0.9439 H   0  0  0  0  0  0  0  0  0  0  0  0
    3.7983   -4.0440    0.7321 H   0  0  0  0  0  0  0  0  0  0  0  0
  1 21  1  0  0  0  0
  2  6  1  0  0  0  0
  2  7  1  0  0  0  0
  2 10  1  0  0  0  0
  3  8  1  0  0  0  0
  3  9  1  0  0  0  0
  3 11  1  0  0  0  0
  4 10  1  0  0  0  0
  4 16  2  0  0  0  0
  5 23  3  0  0  0  0
  6  8  1  0  0  0  0
  6 24  1  0  0  0  0
  6 25  1  0  0  0  0
  7  9  1  0  0  0  0
  7 26  1  0  0  0  0
  7 27  1  0  0  0  0
  8 28  1  0  0  0  0
  8 29  1  0  0  0  0
  9 30  1  0  0  0  0
  9 31  1  0  0  0  0
 10 12  2  0  0  0  0
 11 13  2  0  0  0  0
 11 14  1  0  0  0  0
 12 15  1  0  0  0  0
 12 23  1  0  0  0  0
 13 18  1  0  0  0  0
 13 32  1  0  0  0  0
 14 19  2  0  0  0  0
 14 33  1  0  0  0  0
 15 17  2  0  0  0  0
 15 20  1  0  0  0  0
 16 17  1  0  0  0  0
 16 22  1  0  0  0  0
 17 34  1  0  0  0  0
 18 21  2  0  0  0  0
 18 35  1  0  0  0  0
 19 21  1  0  0  0  0
 19 36  1  0  0  0  0
 20 37  1  0  0  0  0
 20 38  1  0  0  0  0
 20 39  1  0  0  0  0
 22 40  1  0  0  0  0
 22 41  1  0  0  0  0
 22 42  1  0  0  0  0
M  END
> <PUBCHEM_COMPOUND_CID>
947920

> <PUBCHEM_CONFORMER_RMSD>
0.6

> <PUBCHEM_CONFORMER_DIVERSEORDER>
1
20
22
11
18
15
23
5
12
16
4
19
6
21
9
10
2
3
13
24
17
7
25
14
8

> <PUBCHEM_MMFF94_PARTIAL_CHARGES>
28
1 -0.19
10 0.41
11 0.1
12 0.07
13 -0.15
14 -0.15
15 -0.14
16 0.17
17 -0.15
18 -0.15
19 -0.15
2 -0.84
20 0.14
21 0.19
22 0.14
23 0.48
3 -0.84
32 0.15
33 0.15
34 0.15
35 0.15
36 0.15
4 -0.62
5 -0.56
6 0.37
7 0.37
8 0.37
9 0.37

> <PUBCHEM_EFFECTIVE_ROTOR_COUNT>
3.2

> <PUBCHEM_PHARMACOPHORE_FEATURES>
7
1 2 cation
1 3 cation
1 4 acceptor
1 5 acceptor
6 11 13 14 18 19 21 rings
6 2 3 6 7 8 9 rings
6 4 10 12 15 16 17 rings

> <PUBCHEM_HEAVY_ATOM_COUNT>
23

> <PUBCHEM_ATOM_DEF_STEREO_COUNT>
0

> <PUBCHEM_ATOM_UDEF_STEREO_COUNT>
0

> <PUBCHEM_BOND_DEF_STEREO_COUNT>
0

> <PUBCHEM_BOND_UDEF_STEREO_COUNT>
0

> <PUBCHEM_ISOTOPIC_ATOM_COUNT>
0

> <PUBCHEM_COMPONENT_COUNT>
1

> <PUBCHEM_CACTVS_TAUTO_COUNT>
1

> <PUBCHEM_CONFORMER_ID>
000E76D000000001

> <PUBCHEM_MMFF94_ENERGY>
87.2994

> <PUBCHEM_FEATURE_SELFOVERLAP>
35.525

> <PUBCHEM_SHAPE_FINGERPRINT>
10366900 7 18187657890267851636
10498660 4 15936404499142908021
10554248 39 13841079527377204307
10595046 47 18343584062261359393
10670039 82 14996560616916005494
10693767 8 18057618581790809398
11796584 16 17632578275348163471
12107183 9 17767414474217310697
12236239 1 17703796907126838840
12596602 18 16917345943762091947
12730499 353 18260835925024235714
12788726 201 17346048774769848995
12969540 114 17531238487581379739
13167823 11 18131350808697624623
13533116 47 18272087218989962897
13836976 161 18411423929832048598
13911987 19 18190765157831588356
13955234 65 18412539942391931552
14576447 43 18343303626729894862
15183329 4 18343017749649160733
15250474 111 18059281141607563103
15537594 2 18201996625210367215
17349148 13 15770057250800163873
17818456 19 17486505797250016201
17834072 33 18343584057723610501
17844677 252 18410014312838884309
17857418 61 17917704691551618911
1813 80 18200603501006865109
18681886 176 16989125370623067476
200 152 18271811198547832912
20567600 247 18342733040298728423
20645477 70 18334856104104378618
21285901 2 17822007571456390972
221357 26 18261106362051403973
22224240 67 18271798065297471224
22950370 63 18201719522799981011
23522609 53 17914926229404670745
23557571 272 17022902333120559261
23559900 14 18262802985681141368
23569914 152 17180771119365659615
239999 70 17821446884929836480
2871803 45 18187647964292410554
29717793 49 18131918156576549717
3004659 81 17846782901256201206
3060560 45 18409452505704875214
314194 84 18342177756613737795
345986 75 17916862400676849779
3472631 163 15502669242734093038
34797466 226 16877952637415623367
351380 180 9367344829811987311
351380 3 17775564217410741583
42630746 31 18341328976950719000
4340502 62 18059282271241249800
46194498 28 17894632573397070293
465052 167 17418375813575816231
495365 180 18338233890320624384
5281201 14 18261392204582333421
59682541 52 18337096913750621679
6025842 7 18411136969928906124
6327066 14 17902235847577556108
7164475 11 18269558230514015024
960060 61 18343019999399406599
9841814 1 16271632460252162298

> <PUBCHEM_SHAPE_MULTIPOLES>
446.13
14.07
2.39
1.24
15.1
0.88
0.18
2.2
-4.21
-4.89
-0.11
1.04
0
-0.46

> <PUBCHEM_SHAPE_SELFOVERLAP>
955.085

> <PUBCHEM_SHAPE_VOLUME>
247.7

> <PUBCHEM_COORDINATE_TYPE>
2
5
10

$$$$
