2816029
  -OEChem-01171811573D

 40 42  0     0  0  0  0  0  0999 V2000
   -2.7145   -2.4168    0.4449 S   0  0  0  0  0  0  0  0  0  0  0  0
    0.2960   -3.6652   -0.4940 O   0  0  0  0  0  0  0  0  0  0  0  0
    2.1505    0.2324   -0.0484 N   0  0  0  0  0  0  0  0  0  0  0  0
    0.3482   -1.3060   -0.5119 N   0  0  0  0  0  0  0  0  0  0  0  0
    3.4526    0.2505    0.3094 N   0  0  0  0  0  0  0  0  0  0  0  0
   -3.8052    0.0632    0.1807 N   0  0  0  0  0  0  0  0  0  0  0  0
   -1.9715   -0.0001    1.4321 N   0  0  0  0  0  0  0  0  0  0  0  0
    1.6451   -1.0379   -0.1606 C   0  0  0  0  0  0  0  0  0  0  0  0
    1.4729    1.4190   -0.2601 C   0  0  0  0  0  0  0  0  0  0  0  0
    2.6779   -1.8917    0.1410 C   0  0  0  0  0  0  0  0  0  0  0  0
    3.7653   -1.0432    0.4225 C   0  0  0  0  0  0  0  0  0  0  0  0
   -0.2444   -2.5732   -0.6492 C   0  0  0  0  0  0  0  0  0  0  0  0
    0.4227    1.4682   -1.1769 C   0  0  0  0  0  0  0  0  0  0  0  0
    1.8369    2.5660    0.4454 C   0  0  0  0  0  0  0  0  0  0  0  0
   -1.7016   -2.4937   -1.0519 C   0  0  0  0  0  0  0  0  0  0  0  0
    5.1317   -1.4342    0.8080 C   0  0  0  0  0  0  0  0  0  0  0  0
   -2.8154   -0.6506    0.7227 C   0  0  0  0  0  0  0  0  0  0  0  0
   -0.2632    2.6642   -1.3885 C   0  0  0  0  0  0  0  0  0  0  0  0
    1.1509    3.7620    0.2339 C   0  0  0  0  0  0  0  0  0  0  0  0
    0.1008    3.8110   -0.6830 C   0  0  0  0  0  0  0  0  0  0  0  0
   -3.5843    1.3493    0.5861 C   0  0  0  0  0  0  0  0  0  0  0  0
   -4.9038   -0.3580   -0.6594 C   0  0  0  0  0  0  0  0  0  0  0  0
   -2.4476    1.2849    1.3573 C   0  0  0  0  0  0  0  0  0  0  0  0
    2.6644   -2.9716    0.1603 H   0  0  0  0  0  0  0  0  0  0  0  0
   -0.3076   -0.5384   -0.5347 H   0  0  0  0  0  0  0  0  0  0  0  0
    0.1836    0.6644   -1.8658 H   0  0  0  0  0  0  0  0  0  0  0  0
    2.6430    2.5582    1.1750 H   0  0  0  0  0  0  0  0  0  0  0  0
   -1.8847   -1.6374   -1.7085 H   0  0  0  0  0  0  0  0  0  0  0  0
   -1.9568   -3.3995   -1.6110 H   0  0  0  0  0  0  0  0  0  0  0  0
    5.2356   -2.5229    0.8588 H   0  0  0  0  0  0  0  0  0  0  0  0
    5.8606   -1.0616    0.0809 H   0  0  0  0  0  0  0  0  0  0  0  0
    5.3877   -1.0270    1.7916 H   0  0  0  0  0  0  0  0  0  0  0  0
   -1.0597    2.7116   -2.1255 H   0  0  0  0  0  0  0  0  0  0  0  0
    1.4330    4.6550    0.7840 H   0  0  0  0  0  0  0  0  0  0  0  0
   -0.4291    4.7437   -0.8525 H   0  0  0  0  0  0  0  0  0  0  0  0
   -4.2263    2.1722    0.3037 H   0  0  0  0  0  0  0  0  0  0  0  0
   -5.4950   -1.0993   -0.1160 H   0  0  0  0  0  0  0  0  0  0  0  0
   -5.5310    0.5049   -0.8986 H   0  0  0  0  0  0  0  0  0  0  0  0
   -4.4961   -0.7802   -1.5811 H   0  0  0  0  0  0  0  0  0  0  0  0
   -1.9467    2.0989    1.8612 H   0  0  0  0  0  0  0  0  0  0  0  0
  1 15  1  0  0  0  0
  1 17  1  0  0  0  0
  2 12  2  0  0  0  0
  3  5  1  0  0  0  0
  3  8  1  0  0  0  0
  3  9  1  0  0  0  0
  4  8  1  0  0  0  0
  4 12  1  0  0  0  0
  4 25  1  0  0  0  0
  5 11  2  0  0  0  0
  6 17  1  0  0  0  0
  6 21  1  0  0  0  0
  6 22  1  0  0  0  0
  7 17  2  0  0  0  0
  7 23  1  0  0  0  0
  8 10  2  0  0  0  0
  9 13  2  0  0  0  0
  9 14  1  0  0  0  0
 10 11  1  0  0  0  0
 10 24  1  0  0  0  0
 11 16  1  0  0  0  0
 12 15  1  0  0  0  0
 13 18  1  0  0  0  0
 13 26  1  0  0  0  0
 14 19  2  0  0  0  0
 14 27  1  0  0  0  0
 15 28  1  0  0  0  0
 15 29  1  0  0  0  0
 16 30  1  0  0  0  0
 16 31  1  0  0  0  0
 16 32  1  0  0  0  0
 18 20  2  0  0  0  0
 18 33  1  0  0  0  0
 19 20  1  0  0  0  0
 19 34  1  0  0  0  0
 20 35  1  0  0  0  0
 21 23  2  0  0  0  0
 21 36  1  0  0  0  0
 22 37  1  0  0  0  0
 22 38  1  0  0  0  0
 22 39  1  0  0  0  0
 23 40  1  0  0  0  0
M  END
> <PUBCHEM_COMPOUND_CID>
2816029

> <PUBCHEM_CONFORMER_RMSD>
0.8

> <PUBCHEM_CONFORMER_DIVERSEORDER>
14
430
391
199
395
69
104
339
113
386
198
302
411
351
101
281
242
205
118
247
304
222
428
347
427
335
315
394
78
188
392
218
44
311
204
320
298
389
362
415
271
277
279
29
300
387
342
217
360
191
250
221
260
382
86
173
161
399
366
409
219
17
424
224
15
381
177
290
327
117
445
131
33
372
128
153
245
273
211
385
150
141
442
220
164
215
413
126
212
314
48
241
189
206
373
276
406
166
235
439
436
325
397
244
236
319
95
194
140
393
251
213
38
289
248
292
286
337
192
73
124
186
322
326
429
343
431
262
208
114
71
226
137
371
138
354
54
263
167
358
383
353
130
112
115
374
23
402
79
158
377
283
55
317
121
185
65
171
237
214
265
203
180
223
400
155
348
87
258
356
183
291
43
135
401
182
109
249
5
369
107
376
295
238
75
438
59
156
357
269
257
39
31
165
266
437
174
83
407
89
68
27
67
349
336
346
181
76
259
403
123
154
200
63
368
66
418
252
412
139
18
390
243
40
312
264
359
239
363
328
398
62
227
53
370
142
278
405
379
350
120
338
74
323
81
6
197
280
26
45
426
145
232
47
341
99
125
352
12
108
92
122
111
284
42
152
308
157
255
162
20
8
303
184
307
187
240
46
388
129
253
88
293
310
434
364
202
144
149
285
446
256
331
190
216
106
160
210
261
28
195
91
305
441
80
52
143
82
340
103
64
196
32
296
30
301
288
344
57
119
72
105
282
159
13
417
330
22
93
316
90
384
306
77
408
127
333
84
334
414
136
365
378
294
170
420
313
207
318
179
70
230
416
168
60
61
443
7
254
270
419
201
367
229
169
1
228
404
34
297
231
274
151
287
246
102
25
421
444
9
324
16
147
2
98
96
146
410
24
49
275
21
116
267
234
233
375
50
3
132
361
85
148
178
440
36
321
329
299
380
51
97
355
176
172
225
37
11
332
268
10
272
134
35
41
94
100
133
423
56
396
193
425
4
433
309
58
175
432
110
19
345
435
422
209
163

> <PUBCHEM_MMFF94_PARTIAL_CHARGES>
32
1 -0.29
10 -0.15
11 0.11
12 0.57
13 -0.15
14 -0.15
15 0.29
16 0.18
17 0.24
18 -0.15
19 -0.15
2 -0.57
20 -0.15
21 -0.3
22 0.26
23 0.08
24 0.15
25 0.37
26 0.15
27 0.15
3 0.59
33 0.15
34 0.15
35 0.15
36 0.15
4 -0.49
40 0.15
5 -0.71
6 0.05
7 -0.57
8 -0.09
9 -0.02

> <PUBCHEM_EFFECTIVE_ROTOR_COUNT>
6

> <PUBCHEM_PHARMACOPHORE_FEATURES>
7
1 2 acceptor
1 4 donor
1 5 acceptor
3 6 7 17 cation
5 3 5 8 10 11 rings
5 6 7 17 21 23 rings
6 9 13 14 18 19 20 rings

> <PUBCHEM_HEAVY_ATOM_COUNT>
23

> <PUBCHEM_ATOM_DEF_STEREO_COUNT>
0

> <PUBCHEM_ATOM_UDEF_STEREO_COUNT>
0

> <PUBCHEM_BOND_DEF_STEREO_COUNT>
0

> <PUBCHEM_BOND_UDEF_STEREO_COUNT>
0

> <PUBCHEM_ISOTOPIC_ATOM_COUNT>
0

> <PUBCHEM_COMPONENT_COUNT>
1

> <PUBCHEM_CACTVS_TAUTO_COUNT>
4

> <PUBCHEM_CONFORMER_ID>
002AF81D0000000E

> <PUBCHEM_MMFF94_ENERGY>
61.0018

> <PUBCHEM_FEATURE_SELFOVERLAP>
35.522

> <PUBCHEM_SHAPE_FINGERPRINT>
10708813 3 18267869573710754308
11370993 70 18196366138266036205
12553582 1 18193016853627028561
12633257 1 18337964410886559705
12788726 201 18042966476579085178
13134695 92 18260554432530415788
13140716 1 18409728469690152650
13402501 40 18116988889227026677
13583140 156 17967814968516567171
13965767 371 17695368983075268323
14117953 113 18268710520091722117
14790565 3 17830458645968172244
15442244 35 18340204219172809142
17357779 13 18261662671647645829
17492 89 18120374512772143699
17980427 23 17917706945950370509
192875 21 18342172280682980785
19591789 44 18196373624446676910
20600515 1 18202012001419918936
20715895 44 18411411848389757607
2132832 1 17911212216559624398
22113638 7 18412822503937351951
23419403 2 17052965270104178460
23559900 14 18339636866946455633
3380486 145 18121510050880867609
350125 39 18194693789432681731
4409770 3 18044642110444943556
6992083 37 18412549820526730490
7064713 232 18130228155416858081
7471813 234 17555710437697088263
81228 2 17467097162072124961
9981440 41 17328857107194856640

> <PUBCHEM_SHAPE_MULTIPOLES>
446.4
7.36
4.7
1.15
0.36
2.15
0
-3.22
-1.98
-1.15
1.03
0.48
0.24
-0.65

> <PUBCHEM_SHAPE_SELFOVERLAP>
948.446

> <PUBCHEM_SHAPE_VOLUME>
252.6

> <PUBCHEM_COORDINATE_TYPE>
2
5
10

$$$$
