16196101
  -OEChem-01171811523D

 52 54  0     0  0  0  0  0  0999 V2000
    1.9569   -2.8646    2.6204 S   0  0  0  0  0  0  0  0  0  0  0  0
    0.5439    0.6464    2.6855 O   0  5  0  0  0  0  0  0  0  0  0  0
   -2.1523   -0.7578   -3.6850 O   0  0  0  0  0  0  0  0  0  0  0  0
   -1.9936    3.2201   -1.4779 O   0  5  0  0  0  0  0  0  0  0  0  0
   -4.1689    3.2102   -1.1830 O   0  0  0  0  0  0  0  0  0  0  0  0
   -0.4709   -1.8485    0.1966 N   0  3  0  0  0  0  0  0  0  0  0  0
    2.7661   -1.1837    0.7381 N   0  0  0  0  0  0  0  0  0  0  0  0
   -3.0197    2.8041   -0.8899 N   0  3  0  0  0  0  0  0  0  0  0  0
    0.3206   -1.1405    1.1345 C   0  0  0  0  0  0  0  0  0  0  0  0
   -1.4794    0.4565    1.4746 C   0  0  0  0  0  0  0  0  0  0  0  0
   -0.1021   -0.0358    1.8305 C   0  0  0  0  0  0  0  0  0  0  0  0
   -0.4161   -1.4620   -1.0692 C   0  0  0  0  0  0  0  0  0  0  0  0
    1.6974   -1.6752    1.4545 C   0  0  0  0  0  0  0  0  0  0  0  0
   -1.1811   -2.1378   -2.0092 C   0  0  0  0  0  0  0  0  0  0  0  0
    2.7576   -0.1991   -0.3293 C   0  0  0  0  0  0  0  0  0  0  0  0
   -1.2111   -2.8486    0.6509 C   0  0  0  0  0  0  0  0  0  0  0  0
   -1.5978    1.3840    0.4731 C   0  0  0  0  0  0  0  0  0  0  0  0
   -3.9872    1.3487    0.8293 C   0  0  0  0  0  0  0  0  0  0  0  0
   -2.8750    1.8385    0.1444 C   0  0  0  0  0  0  0  0  0  0  0  0
   -2.5451   -0.0497    2.1714 C   0  0  0  0  0  0  0  0  0  0  0  0
    4.0508    0.5601   -0.4037 C   0  0  0  0  0  0  0  0  0  0  0  0
   -3.8222    0.4047    1.8429 C   0  0  0  0  0  0  0  0  0  0  0  0
   -1.9785   -3.1976   -1.5879 C   0  0  0  0  0  0  0  0  0  0  0  0
   -1.9968   -3.5603   -0.2444 C   0  0  0  0  0  0  0  0  0  0  0  0
   -1.1472   -1.7357   -3.4422 C   0  0  0  0  0  0  0  0  0  0  0  0
   -5.3688    1.8168    0.5033 C   0  0  0  0  0  0  0  0  0  0  0  0
    4.2028    1.7326    0.3272 C   0  0  0  0  0  0  0  0  0  0  0  0
    5.0835    0.0826   -1.2024 C   0  0  0  0  0  0  0  0  0  0  0  0
    5.4042    2.4379    0.2584 C   0  0  0  0  0  0  0  0  0  0  0  0
    6.2850    0.7880   -1.2710 C   0  0  0  0  0  0  0  0  0  0  0  0
    6.4453    1.9655   -0.5405 C   0  0  0  0  0  0  0  0  0  0  0  0
    0.2064   -0.6164   -1.3313 H   0  0  0  0  0  0  0  0  0  0  0  0
    1.9262    0.5004   -0.2020 H   0  0  0  0  0  0  0  0  0  0  0  0
    2.5820   -0.7387   -1.2669 H   0  0  0  0  0  0  0  0  0  0  0  0
   -1.1929   -3.0790    1.7098 H   0  0  0  0  0  0  0  0  0  0  0  0
   -0.7127    1.7473   -0.0425 H   0  0  0  0  0  0  0  0  0  0  0  0
   -2.4261   -0.7836    2.9627 H   0  0  0  0  0  0  0  0  0  0  0  0
    3.6658   -1.6023    0.9562 H   0  0  0  0  0  0  0  0  0  0  0  0
   -4.6765    0.0119    2.3879 H   0  0  0  0  0  0  0  0  0  0  0  0
   -2.5918   -3.7470   -2.2970 H   0  0  0  0  0  0  0  0  0  0  0  0
   -2.6165   -4.3823    0.0974 H   0  0  0  0  0  0  0  0  0  0  0  0
   -1.3256   -2.5959   -4.0966 H   0  0  0  0  0  0  0  0  0  0  0  0
   -0.1720   -1.3130   -3.7082 H   0  0  0  0  0  0  0  0  0  0  0  0
   -5.6639    1.5465   -0.5160 H   0  0  0  0  0  0  0  0  0  0  0  0
   -6.1013    1.3155    1.1496 H   0  0  0  0  0  0  0  0  0  0  0  0
   -5.4996    2.8846    0.7078 H   0  0  0  0  0  0  0  0  0  0  0  0
    3.3989    2.1084    0.9541 H   0  0  0  0  0  0  0  0  0  0  0  0
    4.9704   -0.8344   -1.7739 H   0  0  0  0  0  0  0  0  0  0  0  0
    5.5292    3.3545    0.8274 H   0  0  0  0  0  0  0  0  0  0  0  0
    7.0960    0.4201   -1.8926 H   0  0  0  0  0  0  0  0  0  0  0  0
    7.3809    2.5144   -0.5939 H   0  0  0  0  0  0  0  0  0  0  0  0
   -2.0969   -0.5204   -4.6264 H   0  0  0  0  0  0  0  0  0  0  0  0
  1 13  2  0  0  0  0
  2 11  1  0  0  0  0
  3 25  1  0  0  0  0
  3 52  1  0  0  0  0
  4  8  1  0  0  0  0
  5  8  2  0  0  0  0
  6  9  1  0  0  0  0
  6 12  1  0  0  0  0
  6 16  2  0  0  0  0
  7 13  1  0  0  0  0
  7 15  1  0  0  0  0
  7 38  1  0  0  0  0
  8 19  1  0  0  0  0
  9 11  2  0  0  0  0
  9 13  1  0  0  0  0
 10 11  1  0  0  0  0
 10 17  2  0  0  0  0
 10 20  1  0  0  0  0
 12 14  2  0  0  0  0
 12 32  1  0  0  0  0
 14 23  1  0  0  0  0
 14 25  1  0  0  0  0
 15 21  1  0  0  0  0
 15 33  1  0  0  0  0
 15 34  1  0  0  0  0
 16 24  1  0  0  0  0
 16 35  1  0  0  0  0
 17 19  1  0  0  0  0
 17 36  1  0  0  0  0
 18 19  2  0  0  0  0
 18 22  1  0  0  0  0
 18 26  1  0  0  0  0
 20 22  2  0  0  0  0
 20 37  1  0  0  0  0
 21 27  2  0  0  0  0
 21 28  1  0  0  0  0
 22 39  1  0  0  0  0
 23 24  2  0  0  0  0
 23 40  1  0  0  0  0
 24 41  1  0  0  0  0
 25 42  1  0  0  0  0
 25 43  1  0  0  0  0
 26 44  1  0  0  0  0
 26 45  1  0  0  0  0
 26 46  1  0  0  0  0
 27 29  1  0  0  0  0
 27 47  1  0  0  0  0
 28 30  2  0  0  0  0
 28 48  1  0  0  0  0
 29 31  2  0  0  0  0
 29 49  1  0  0  0  0
 30 31  1  0  0  0  0
 30 50  1  0  0  0  0
 31 51  1  0  0  0  0
M  CHG  4   2  -1   4  -1   6   1   8   1
M  END
> <PUBCHEM_COMPOUND_CID>
16196101

> <PUBCHEM_CONFORMER_RMSD>
1

> <PUBCHEM_CONFORMER_DIVERSEORDER>
1
28
52
9
59
29
61
67
18
55
42
48
16
13
8
37
53
25
2
12
30
57
5
6
46
22
41
26
34
20
51
44
70
33
64
63
56
3
19
66
43
68
31
4
21
40
10
7
69
14
17
11
58
47
54
35
38
24
45
60
49
50
23
32
27
15
71
36
65
62
39

> <PUBCHEM_MMFF94_PARTIAL_CHARGES>
45
1 -0.38
10 0.03
11 -0.18
12 0.21
13 0.43
14 -0.14
15 0.44
16 0.21
17 -0.15
18 -0.14
19 0.13
2 -0.85
20 -0.15
21 -0.14
22 -0.15
23 -0.15
24 -0.15
25 0.42
26 0.14
27 -0.15
28 -0.15
29 -0.15
3 -0.68
30 -0.15
31 -0.15
32 0.15
35 0.15
36 0.15
37 0.15
38 0.37
39 0.15
4 -0.52
40 0.15
41 0.15
47 0.15
48 0.15
49 0.15
5 -0.52
50 0.15
51 0.15
52 0.4
6 -0.07
7 -0.73
8 0.91
9 0.37

> <PUBCHEM_EFFECTIVE_ROTOR_COUNT>
8

> <PUBCHEM_PHARMACOPHORE_FEATURES>
9
1 1 acceptor
1 3 acceptor
1 3 donor
1 4 acceptor
1 4 anion
1 5 acceptor
6 10 17 18 19 20 22 rings
6 21 27 28 29 30 31 rings
6 6 12 14 16 23 24 rings

> <PUBCHEM_HEAVY_ATOM_COUNT>
31

> <PUBCHEM_ATOM_DEF_STEREO_COUNT>
0

> <PUBCHEM_ATOM_UDEF_STEREO_COUNT>
0

> <PUBCHEM_BOND_DEF_STEREO_COUNT>
1

> <PUBCHEM_BOND_UDEF_STEREO_COUNT>
0

> <PUBCHEM_ISOTOPIC_ATOM_COUNT>
0

> <PUBCHEM_COMPONENT_COUNT>
1

> <PUBCHEM_CACTVS_TAUTO_COUNT>
2

> <PUBCHEM_CONFORMER_ID>
00F7220500000001

> <PUBCHEM_MMFF94_ENERGY>
135.1046

> <PUBCHEM_FEATURE_SELFOVERLAP>
45.754

> <PUBCHEM_SHAPE_FINGERPRINT>
10190108 129 18120108422642698659
10369192 42 18059033704246413201
11578080 2 15213842819289249057
12160290 23 17773853420563292795
12422481 6 17696795329178014691
13149001 5 17489009539739224577
13911987 19 18201725007510492537
144659 39 17916604131730055822
14932701 244 18049716614431774486
17492 54 18341036468213165285
17980427 26 17241597325957162122
18603816 31 12318921118572635852
21033648 29 16009317475005614913
21756936 100 18187089494448626810
21860390 5 17181077835131483757
23227448 37 18339933722105958128
23559900 14 17681265564531886307
3298306 158 18333453123336807928
376196 1 17680703727260330481
44249763 50 18270398416870672592
44802255 64 18338535079096789326
469060 322 17095801147763681646
508706 21 18192152818583339112
57527293 21 18266747892353353675
5951187 136 17107331395908983861
59755656 520 18040441027409045298
6669772 16 18270697354572518494
70251023 43 17055820809107643238
7288768 16 17385730213967466274

> <PUBCHEM_SHAPE_MULTIPOLES>
603.39
11.11
4.14
2.93
17.86
0.73
1.33
-11.16
2.32
-3.41
1.04
-1.67
1.79
-1.32

> <PUBCHEM_SHAPE_SELFOVERLAP>
1296.269

> <PUBCHEM_SHAPE_VOLUME>
337.9

> <PUBCHEM_COORDINATE_TYPE>
2
5
10

$$$$
