2113959
  -OEChem-01171811463D

 32 33  0     0  0  0  0  0  0999 V2000
   -1.8356   -2.7357    0.3976 O   0  0  0  0  0  0  0  0  0  0  0  0
   -1.4559   -0.5746   -0.4497 N   0  0  0  0  0  0  0  0  0  0  0  0
   -0.3385    0.2057   -0.4935 N   0  0  0  0  0  0  0  0  0  0  0  0
   -2.7187   -0.0787   -0.9208 C   0  0  0  0  0  0  0  0  0  0  0  0
   -3.4847    0.6805    0.1576 C   0  0  0  0  0  0  0  0  0  0  0  0
   -4.8432    1.1871   -0.3323 C   0  0  0  0  0  0  0  0  0  0  0  0
    0.7241   -0.5018    0.0119 C   0  0  0  0  0  0  0  0  0  0  0  0
   -1.1265   -1.7767    0.1449 C   0  0  0  0  0  0  0  0  0  0  0  0
    0.3335   -1.7133    0.4455 C   0  0  0  0  0  0  0  0  0  0  0  0
    2.0881    0.0462    0.0282 C   0  0  0  0  0  0  0  0  0  0  0  0
   -5.6088    1.8867    0.7798 C   0  0  0  0  0  0  0  0  0  0  0  0
    3.1966   -0.8039   -0.0830 C   0  0  0  0  0  0  0  0  0  0  0  0
    2.2980    1.4259    0.1546 C   0  0  0  0  0  0  0  0  0  0  0  0
    4.4909   -0.2841   -0.0681 C   0  0  0  0  0  0  0  0  0  0  0  0
    3.5922    1.9459    0.1694 C   0  0  0  0  0  0  0  0  0  0  0  0
    4.6886    1.0909    0.0581 C   0  0  0  0  0  0  0  0  0  0  0  0
   -2.5461    0.5551   -1.7981 H   0  0  0  0  0  0  0  0  0  0  0  0
   -3.3123   -0.9423   -1.2425 H   0  0  0  0  0  0  0  0  0  0  0  0
   -2.8824    1.5288    0.5068 H   0  0  0  0  0  0  0  0  0  0  0  0
   -3.6298    0.0262    1.0268 H   0  0  0  0  0  0  0  0  0  0  0  0
   -5.4402    0.3470   -0.7055 H   0  0  0  0  0  0  0  0  0  0  0  0
   -4.7003    1.8815   -1.1682 H   0  0  0  0  0  0  0  0  0  0  0  0
   -0.2303    0.9530   -1.1657 H   0  0  0  0  0  0  0  0  0  0  0  0
    0.9059   -2.5071    0.8924 H   0  0  0  0  0  0  0  0  0  0  0  0
   -5.0508    2.7494    1.1574 H   0  0  0  0  0  0  0  0  0  0  0  0
   -6.5749    2.2427    0.4088 H   0  0  0  0  0  0  0  0  0  0  0  0
   -5.7963    1.2055    1.6160 H   0  0  0  0  0  0  0  0  0  0  0  0
    3.0744   -1.8790   -0.1917 H   0  0  0  0  0  0  0  0  0  0  0  0
    1.4622    2.1151    0.2508 H   0  0  0  0  0  0  0  0  0  0  0  0
    5.3448   -0.9493   -0.1568 H   0  0  0  0  0  0  0  0  0  0  0  0
    3.7467    3.0163    0.2693 H   0  0  0  0  0  0  0  0  0  0  0  0
    5.6963    1.4958    0.0697 H   0  0  0  0  0  0  0  0  0  0  0  0
  1  8  2  0  0  0  0
  2  3  1  0  0  0  0
  2  4  1  0  0  0  0
  2  8  1  0  0  0  0
  3  7  1  0  0  0  0
  3 23  1  0  0  0  0
  4  5  1  0  0  0  0
  4 17  1  0  0  0  0
  4 18  1  0  0  0  0
  5  6  1  0  0  0  0
  5 19  1  0  0  0  0
  5 20  1  0  0  0  0
  6 11  1  0  0  0  0
  6 21  1  0  0  0  0
  6 22  1  0  0  0  0
  7  9  2  0  0  0  0
  7 10  1  0  0  0  0
  8  9  1  0  0  0  0
  9 24  1  0  0  0  0
 10 12  2  0  0  0  0
 10 13  1  0  0  0  0
 11 25  1  0  0  0  0
 11 26  1  0  0  0  0
 11 27  1  0  0  0  0
 12 14  1  0  0  0  0
 12 28  1  0  0  0  0
 13 15  2  0  0  0  0
 13 29  1  0  0  0  0
 14 16  2  0  0  0  0
 14 30  1  0  0  0  0
 15 16  1  0  0  0  0
 15 31  1  0  0  0  0
 16 32  1  0  0  0  0
M  END
> <PUBCHEM_COMPOUND_CID>
2113959

> <PUBCHEM_CONFORMER_RMSD>
0.6

> <PUBCHEM_CONFORMER_DIVERSEORDER>
1
21
20
29
30
28
26
27
11
17
13
31
9
7
22
16
12
19
25
5
24
15
18
6
14
4
23
2
8
3
10

> <PUBCHEM_MMFF94_PARTIAL_CHARGES>
20
1 -0.57
10 0.03
12 -0.15
13 -0.15
14 -0.15
15 -0.15
16 -0.15
2 -0.34
23 0.4
24 0.15
28 0.15
29 0.15
3 -0.52
30 0.15
31 0.15
32 0.15
4 0.3
7 0.07
8 0.62
9 -0.14

> <PUBCHEM_EFFECTIVE_ROTOR_COUNT>
4

> <PUBCHEM_PHARMACOPHORE_FEATURES>
5
1 1 acceptor
1 11 hydrophobe
1 3 donor
5 2 3 7 8 9 rings
6 10 12 13 14 15 16 rings

> <PUBCHEM_HEAVY_ATOM_COUNT>
16

> <PUBCHEM_ATOM_DEF_STEREO_COUNT>
0

> <PUBCHEM_ATOM_UDEF_STEREO_COUNT>
0

> <PUBCHEM_BOND_DEF_STEREO_COUNT>
0

> <PUBCHEM_BOND_UDEF_STEREO_COUNT>
0

> <PUBCHEM_ISOTOPIC_ATOM_COUNT>
0

> <PUBCHEM_COMPONENT_COUNT>
1

> <PUBCHEM_CACTVS_TAUTO_COUNT>
3

> <PUBCHEM_CONFORMER_ID>
002041A700000001

> <PUBCHEM_MMFF94_ENERGY>
39.9686

> <PUBCHEM_FEATURE_SELFOVERLAP>
25.371

> <PUBCHEM_SHAPE_FINGERPRINT>
100836 57 18409453578550368029
10608611 8 18193833962997577204
11405975 8 18335133237407132434
122479 349 18410575114886248503
12390115 104 18338532918548611385
12596602 18 14490199292924076501
12644460 14 17968652701169811555
14123255 52 18409163282132584069
15196674 1 18410854390713122540
15219456 202 18338797948327875118
15475509 35 16082212870574696027
15778101 99 18336833103885130972
1741750 31 18411416241292150651
17834072 32 18410857672347802521
18186145 218 18335974320530785748
204376 136 18335421249324008771
20645477 56 18260546735964319676
20645477 70 17632584833916328894
212847 35 18342737399368507648
21524375 3 18342174436682807863
22079108 93 18409167723402918857
22182937 141 18338238266686076817
22224240 67 18260271829100380601
23402539 116 18201711855961695485
23402655 69 18201434805112581476
23500284 214 18335420188103031403
23557571 272 18269003157509171182
23558518 356 17826515762124270930
23559900 14 18413386549830113586
25 1 18411412899717858590
293599 30 18410294687923821053
335352 9 18410292480869832934
4047638 21 18410293597223453108
46194498 28 12822424850625300681
465052 167 10881694485387357081
474 4 18341613681452445489
495365 180 17632282511141657856
5104073 3 18115578383422766424
59755656 520 18407757028320229095
633830 44 18413102857642749079
7832392 63 18336542819655936244
8272917 22 18130228151438707222

> <PUBCHEM_SHAPE_MULTIPOLES>
313.44
10.8
2.25
0.75
6.52
0.63
-0.02
-7.78
0.79
0.83
0.46
0.42
-0.03
-0.21

> <PUBCHEM_SHAPE_SELFOVERLAP>
654.751

> <PUBCHEM_SHAPE_VOLUME>
178.6

> <PUBCHEM_COORDINATE_TYPE>
2
5
10

$$$$
