695123
  -OEChem-01171811523D

 27 29  0     0  0  0  0  0  0999 V2000
   -5.3523   -1.1444   -0.5082 F   0  0  0  0  0  0  0  0  0  0  0  0
   -5.3512    0.1317    1.2455 F   0  0  0  0  0  0  0  0  0  0  0  0
   -5.3306    1.0175   -0.7403 F   0  0  0  0  0  0  0  0  0  0  0  0
    1.4413   -2.3191    0.2788 O   0  0  0  0  0  0  0  0  0  0  0  0
    1.4415    2.3190   -0.2776 O   0  0  0  0  0  0  0  0  0  0  0  0
    0.9138   -0.0001   -0.0001 N   0  0  0  0  0  0  0  0  0  0  0  0
    4.1768   -1.4257    0.1440 N   0  0  0  0  0  0  0  0  0  0  0  0
    4.1770    1.4252   -0.1439 N   0  0  0  0  0  0  0  0  0  0  0  0
   -0.5195    0.0000    0.0001 C   0  0  0  0  0  0  0  0  0  0  0  0
    1.7051   -1.1418    0.1197 C   0  0  0  0  0  0  0  0  0  0  0  0
    1.7052    1.1416   -0.1196 C   0  0  0  0  0  0  0  0  0  0  0  0
    3.0774   -0.6776    0.0665 C   0  0  0  0  0  0  0  0  0  0  0  0
    3.0774    0.6773   -0.0672 C   0  0  0  0  0  0  0  0  0  0  0  0
   -1.2211   -1.1037   -0.4914 C   0  0  0  0  0  0  0  0  0  0  0  0
   -1.2213    1.1033    0.4918 C   0  0  0  0  0  0  0  0  0  0  0  0
   -3.3134   -0.0007    0.0001 C   0  0  0  0  0  0  0  0  0  0  0  0
   -2.6159   -1.1039   -0.4915 C   0  0  0  0  0  0  0  0  0  0  0  0
   -2.6163    1.1029    0.4918 C   0  0  0  0  0  0  0  0  0  0  0  0
   -4.8048   -0.0011    0.0007 C   0  0  0  0  0  0  0  0  0  0  0  0
    5.3153   -0.6947    0.0706 C   0  0  0  0  0  0  0  0  0  0  0  0
    5.3154    0.6940   -0.0698 C   0  0  0  0  0  0  0  0  0  0  0  0
   -0.7108   -1.9677   -0.9062 H   0  0  0  0  0  0  0  0  0  0  0  0
   -0.7116    1.9676    0.9064 H   0  0  0  0  0  0  0  0  0  0  0  0
   -3.1415   -1.9701   -0.8839 H   0  0  0  0  0  0  0  0  0  0  0  0
   -3.1515    1.9644    0.8823 H   0  0  0  0  0  0  0  0  0  0  0  0
    6.2409   -1.2557    0.1279 H   0  0  0  0  0  0  0  0  0  0  0  0
    6.2410    1.2549   -0.1265 H   0  0  0  0  0  0  0  0  0  0  0  0
  1 19  1  0  0  0  0
  2 19  1  0  0  0  0
  3 19  1  0  0  0  0
  4 10  2  0  0  0  0
  5 11  2  0  0  0  0
  6  9  1  0  0  0  0
  6 10  1  0  0  0  0
  6 11  1  0  0  0  0
  7 12  2  0  0  0  0
  7 20  1  0  0  0  0
  8 13  2  0  0  0  0
  8 21  1  0  0  0  0
  9 14  2  0  0  0  0
  9 15  1  0  0  0  0
 10 12  1  0  0  0  0
 11 13  1  0  0  0  0
 12 13  1  0  0  0  0
 14 17  1  0  0  0  0
 14 22  1  0  0  0  0
 15 18  2  0  0  0  0
 15 23  1  0  0  0  0
 16 17  2  0  0  0  0
 16 18  1  0  0  0  0
 16 19  1  0  0  0  0
 17 24  1  0  0  0  0
 18 25  1  0  0  0  0
 20 21  2  0  0  0  0
 20 26  1  0  0  0  0
 21 27  1  0  0  0  0
M  END
> <PUBCHEM_COMPOUND_CID>
695123

> <PUBCHEM_CONFORMER_RMSD>
0.6

> <PUBCHEM_CONFORMER_DIVERSEORDER>
1

> <PUBCHEM_MMFF94_PARTIAL_CHARGES>
27
1 -0.34
10 0.54
11 0.54
12 0.4
13 0.4
14 -0.15
15 -0.15
16 -0.14
17 -0.15
18 -0.15
19 1.16
2 -0.34
20 0.16
21 0.16
22 0.15
23 0.15
24 0.15
25 0.15
26 0.15
27 0.15
3 -0.34
4 -0.57
5 -0.57
6 -0.24
7 -0.62
8 -0.62
9 0.12

> <PUBCHEM_EFFECTIVE_ROTOR_COUNT>
2.2

> <PUBCHEM_PHARMACOPHORE_FEATURES>
7
1 4 acceptor
1 5 acceptor
1 7 acceptor
1 8 acceptor
5 6 10 11 12 13 rings
6 7 8 12 13 20 21 rings
6 9 14 15 16 17 18 rings

> <PUBCHEM_HEAVY_ATOM_COUNT>
21

> <PUBCHEM_ATOM_DEF_STEREO_COUNT>
0

> <PUBCHEM_ATOM_UDEF_STEREO_COUNT>
0

> <PUBCHEM_BOND_DEF_STEREO_COUNT>
0

> <PUBCHEM_BOND_UDEF_STEREO_COUNT>
0

> <PUBCHEM_ISOTOPIC_ATOM_COUNT>
0

> <PUBCHEM_COMPONENT_COUNT>
1

> <PUBCHEM_CACTVS_TAUTO_COUNT>
1

> <PUBCHEM_CONFORMER_ID>
000A9B5300000001

> <PUBCHEM_MMFF94_ENERGY>
64.3705

> <PUBCHEM_FEATURE_SELFOVERLAP>
35.656

> <PUBCHEM_SHAPE_FINGERPRINT>
11471102 20 18408884040306641860
12107183 9 17620759383826001139
12236239 1 18202565081332401738
13533116 47 17489590018219493446
13862211 1 18410007724137233146
14341114 176 18408329886235363155
15196674 1 18411136939399839775
15788980 27 18261111876725653509
17834072 33 18342173388283565286
18522853 276 18342739611186760344
18681886 176 18272082838312971920
19489759 90 16226045583410534325
200 152 18343862221343696537
20645477 70 18410855426264724526
21033648 29 17895176827711701861
21267235 1 18412271610057409094
21641784 216 17822871779407484636
21709351 56 18335695074784559341
23402539 116 17988920072520119189
23402655 69 18412823569046965365
23557571 272 14907913660173221440
23559900 14 18200868577814354784
26918003 58 18187085065799339363
2871803 45 18334293133013490376
29717793 49 17917712366246694524
300161 21 18343294890491958820
3004659 81 18335421249476950678
335352 9 18410573985557893342
34797466 226 16702307897036231096
350125 39 18412263925970974720
3545911 37 18411702101272013503
4214541 1 18411699859636993905
4340502 62 17168146727906458811
474 4 18187930624775072844
5104073 3 18340767138671050667
542803 24 18410573989467517457
59755656 215 18410296865941985782
602551 16 15482095185180921853
7495541 125 15357988896732877284
9709674 26 18411707573435486183

> <PUBCHEM_SHAPE_MULTIPOLES>
383.67
12.24
1.74
0.72
4.72
0.02
0.05
0.01
0
-0.86
-0.05
0.47
-0.02
-0.47

> <PUBCHEM_SHAPE_SELFOVERLAP>
862.894

> <PUBCHEM_SHAPE_VOLUME>
204.1

> <PUBCHEM_COORDINATE_TYPE>
2
5
10

$$$$
