1385360
  -OEChem-01171811543D

 46 49  0     0  0  0  0  0  0999 V2000
   -1.8347    4.0879    0.4225 O   0  0  0  0  0  0  0  0  0  0  0  0
    2.6463    2.0005    1.2874 O   0  0  0  0  0  0  0  0  0  0  0  0
    1.1589   -1.9985   -1.9195 O   0  0  0  0  0  0  0  0  0  0  0  0
   -2.0915   -2.1532    2.4587 O   0  0  0  0  0  0  0  0  0  0  0  0
   -4.2901   -2.6834    2.2320 O   0  0  0  0  0  0  0  0  0  0  0  0
    0.2380    2.2291    0.0839 N   0  0  0  0  0  0  0  0  0  0  0  0
   -0.5716    0.0630   -1.6568 N   0  0  0  0  0  0  0  0  0  0  0  0
   -0.2127    2.5906    1.4280 C   0  0  0  0  0  0  0  0  0  0  0  0
   -0.0117    3.2460   -0.9377 C   0  0  0  0  0  0  0  0  0  0  0  0
    0.9870    1.1158   -0.1609 C   0  0  0  0  0  0  0  0  0  0  0  0
   -1.6711    3.0295    1.3696 C   0  0  0  0  0  0  0  0  0  0  0  0
   -1.4791    3.6556   -0.8931 C   0  0  0  0  0  0  0  0  0  0  0  0
    0.6118    0.1070   -0.9699 C   0  0  0  0  0  0  0  0  0  0  0  0
    2.2992    1.0826    0.5509 C   0  0  0  0  0  0  0  0  0  0  0  0
    3.1781   -0.0812    0.3529 C   0  0  0  0  0  0  0  0  0  0  0  0
    2.7902   -1.1239   -0.4828 C   0  0  0  0  0  0  0  0  0  0  0  0
    1.4954   -1.0780   -1.1811 C   0  0  0  0  0  0  0  0  0  0  0  0
    4.4133   -0.1364    1.0117 C   0  0  0  0  0  0  0  0  0  0  0  0
    3.6357   -2.2261   -0.6630 C   0  0  0  0  0  0  0  0  0  0  0  0
   -1.7939   -0.4697   -1.2399 C   0  0  0  0  0  0  0  0  0  0  0  0
    5.2535   -1.2351    0.8304 C   0  0  0  0  0  0  0  0  0  0  0  0
    4.8652   -2.2788   -0.0060 C   0  0  0  0  0  0  0  0  0  0  0  0
   -1.9199   -1.0536    0.0281 C   0  0  0  0  0  0  0  0  0  0  0  0
   -2.9128   -0.4264   -2.0832 C   0  0  0  0  0  0  0  0  0  0  0  0
   -3.1410   -1.5840    0.4445 C   0  0  0  0  0  0  0  0  0  0  0  0
   -4.1337   -0.9569   -1.6668 C   0  0  0  0  0  0  0  0  0  0  0  0
   -4.2478   -1.5358   -0.4028 C   0  0  0  0  0  0  0  0  0  0  0  0
   -3.2610   -2.1865    1.7629 C   0  0  0  0  0  0  0  0  0  0  0  0
   -0.1144    1.7507    2.1258 H   0  0  0  0  0  0  0  0  0  0  0  0
    0.4056    3.4168    1.7988 H   0  0  0  0  0  0  0  0  0  0  0  0
    0.6238    4.1139   -0.7238 H   0  0  0  0  0  0  0  0  0  0  0  0
    0.2436    2.8894   -1.9421 H   0  0  0  0  0  0  0  0  0  0  0  0
   -1.9901    3.4020    2.3481 H   0  0  0  0  0  0  0  0  0  0  0  0
   -2.3302    2.1961    1.0984 H   0  0  0  0  0  0  0  0  0  0  0  0
   -2.1373    2.8322   -1.1939 H   0  0  0  0  0  0  0  0  0  0  0  0
   -1.6555    4.4900   -1.5791 H   0  0  0  0  0  0  0  0  0  0  0  0
   -0.4766    0.1670   -2.6627 H   0  0  0  0  0  0  0  0  0  0  0  0
    4.7390    0.6651    1.6694 H   0  0  0  0  0  0  0  0  0  0  0  0
    3.3557   -3.0530   -1.3102 H   0  0  0  0  0  0  0  0  0  0  0  0
    6.2108   -1.2764    1.3419 H   0  0  0  0  0  0  0  0  0  0  0  0
    5.5196   -3.1341   -0.1468 H   0  0  0  0  0  0  0  0  0  0  0  0
   -1.0537   -1.0874    0.6832 H   0  0  0  0  0  0  0  0  0  0  0  0
   -2.8397    0.0232   -3.0706 H   0  0  0  0  0  0  0  0  0  0  0  0
   -4.9956   -0.9186   -2.3265 H   0  0  0  0  0  0  0  0  0  0  0  0
   -5.2080   -1.9431   -0.0971 H   0  0  0  0  0  0  0  0  0  0  0  0
   -2.1827   -2.5620    3.3457 H   0  0  0  0  0  0  0  0  0  0  0  0
  1 11  1  0  0  0  0
  1 12  1  0  0  0  0
  2 14  2  0  0  0  0
  3 17  2  0  0  0  0
  4 28  1  0  0  0  0
  4 46  1  0  0  0  0
  5 28  2  0  0  0  0
  6  8  1  0  0  0  0
  6  9  1  0  0  0  0
  6 10  1  0  0  0  0
  7 13  1  0  0  0  0
  7 20  1  0  0  0  0
  7 37  1  0  0  0  0
  8 11  1  0  0  0  0
  8 29  1  0  0  0  0
  8 30  1  0  0  0  0
  9 12  1  0  0  0  0
  9 31  1  0  0  0  0
  9 32  1  0  0  0  0
 10 13  2  0  0  0  0
 10 14  1  0  0  0  0
 11 33  1  0  0  0  0
 11 34  1  0  0  0  0
 12 35  1  0  0  0  0
 12 36  1  0  0  0  0
 13 17  1  0  0  0  0
 14 15  1  0  0  0  0
 15 16  1  0  0  0  0
 15 18  2  0  0  0  0
 16 17  1  0  0  0  0
 16 19  2  0  0  0  0
 18 21  1  0  0  0  0
 18 38  1  0  0  0  0
 19 22  1  0  0  0  0
 19 39  1  0  0  0  0
 20 23  1  0  0  0  0
 20 24  2  0  0  0  0
 21 22  2  0  0  0  0
 21 40  1  0  0  0  0
 22 41  1  0  0  0  0
 23 25  2  0  0  0  0
 23 42  1  0  0  0  0
 24 26  1  0  0  0  0
 24 43  1  0  0  0  0
 25 27  1  0  0  0  0
 25 28  1  0  0  0  0
 26 27  2  0  0  0  0
 26 44  1  0  0  0  0
 27 45  1  0  0  0  0
M  END
> <PUBCHEM_COMPOUND_CID>
1385360

> <PUBCHEM_CONFORMER_RMSD>
0.8

> <PUBCHEM_CONFORMER_DIVERSEORDER>
1
3
20
17
5
26
8
6
12
19
16
24
4
21
22
2
9
18
14
7
23
25
10
13
11
15

> <PUBCHEM_MMFF94_PARTIAL_CHARGES>
38
1 -0.56
10 0.11
11 0.28
12 0.28
13 0.11
14 0.47
15 0.09
16 0.09
17 0.47
18 -0.15
19 -0.15
2 -0.57
20 0.1
21 -0.15
22 -0.15
23 -0.15
24 -0.15
25 0.09
26 -0.15
27 -0.15
28 0.63
3 -0.57
37 0.4
38 0.15
39 0.15
4 -0.65
40 0.15
41 0.15
42 0.15
43 0.15
44 0.15
45 0.15
46 0.5
5 -0.57
6 -0.84
7 -0.6
8 0.37
9 0.37

> <PUBCHEM_EFFECTIVE_ROTOR_COUNT>
5.2

> <PUBCHEM_PHARMACOPHORE_FEATURES>
13
1 1 acceptor
1 2 acceptor
1 3 acceptor
1 4 acceptor
1 5 acceptor
1 6 cation
1 7 cation
1 7 donor
3 4 5 28 anion
6 1 6 8 9 11 12 rings
6 10 13 14 15 16 17 rings
6 15 16 18 19 21 22 rings
6 20 23 24 25 26 27 rings

> <PUBCHEM_HEAVY_ATOM_COUNT>
28

> <PUBCHEM_ATOM_DEF_STEREO_COUNT>
0

> <PUBCHEM_ATOM_UDEF_STEREO_COUNT>
0

> <PUBCHEM_BOND_DEF_STEREO_COUNT>
0

> <PUBCHEM_BOND_UDEF_STEREO_COUNT>
0

> <PUBCHEM_ISOTOPIC_ATOM_COUNT>
0

> <PUBCHEM_COMPONENT_COUNT>
1

> <PUBCHEM_CACTVS_TAUTO_COUNT>
3

> <PUBCHEM_CONFORMER_ID>
0015239000000001

> <PUBCHEM_MMFF94_ENERGY>
106.9492

> <PUBCHEM_FEATURE_SELFOVERLAP>
66.053

> <PUBCHEM_SHAPE_FINGERPRINT>
10119406 146 16473489287947021606
10165383 225 16821108169828114005
10688039 33 18410002239168655869
1100329 8 17113245651495034246
11244481 83 17536309585458594153
11578080 2 15141834780573979540
11582403 64 15956591743483459781
11796584 16 17458896076956026178
12160290 23 18054530014097655845
12293681 4 18408322168801429467
12363563 72 18409168830771745599
12422481 6 17916885516675964451
12553582 1 18199763568623236646
12788726 201 18193539108749333945
131258 38 16814100844632033211
13134695 92 18198614635002035517
13140716 1 17770766928626318250
13544653 18 18411133658266566814
13965767 371 16700084585445253707
14840074 17 17987239005182721988
14866123 147 17975973159393509987
17357779 13 18199166469347798268
20600515 1 17677030426151645597
20739085 24 18128829714123354292
21049683 118 17477454544473626145
22182313 1 17488179297619311462
23175994 123 18335414699303749279
23558518 356 18266736892203707668
23559900 14 17458616860952414870
3027735 51 18266452101396187187
3380486 145 18196358432693689951
3383291 50 16255894798512007175
350125 39 18130211710736641712
35225 105 17978228258073927001
484985 159 17968946257916250459
5104073 3 17984399873456398202
57527295 17 17976501032908077807
7226269 152 18262511486493088765
81228 2 18265903458078880325
9896288 288 14952638083041960938
9981440 41 17270009737548485422

> <PUBCHEM_SHAPE_MULTIPOLES>
536.92
8.71
4.36
2
5.53
4.54
0.45
-8.1
1.76
-2.86
1.18
-2
-0.91
1.54

> <PUBCHEM_SHAPE_SELFOVERLAP>
1185.995

> <PUBCHEM_SHAPE_VOLUME>
285.4

> <PUBCHEM_COORDINATE_TYPE>
2
5
10

$$$$
