4845688
  -OEChem-01171812133D

 41 42  0     0  0  0  0  0  0999 V2000
   -5.8263   -1.2959   -2.5068 Cl  0  0  0  0  0  0  0  0  0  0  0  0
    4.7842   -1.5398   -0.5216 S   0  0  0  0  0  0  0  0  0  0  0  0
    1.8054    1.0244   -0.1678 O   0  0  0  0  0  0  0  0  0  0  0  0
    0.7077    3.2578    0.5648 O   0  0  0  0  0  0  0  0  0  0  0  0
   -2.8416    1.0820    1.2589 O   0  0  0  0  0  0  0  0  0  0  0  0
    1.8286   -1.0811   -1.0767 O   0  0  0  0  0  0  0  0  0  0  0  0
    8.4268   -1.0020    0.6382 O   0  5  0  0  0  0  0  0  0  0  0  0
    7.4232   -2.6945   -0.3444 O   0  0  0  0  0  0  0  0  0  0  0  0
   -1.4131    2.7994   -0.2617 N   0  0  0  0  0  0  0  0  0  0  0  0
   -4.0018    0.2220   -0.5940 N   0  0  0  0  0  0  0  0  0  0  0  0
    7.3912   -1.5319    0.1474 N   0  3  0  0  0  0  0  0  0  0  0  0
   -2.3659    1.9277   -0.9446 C   0  0  0  0  0  0  0  0  0  0  0  0
   -0.0767    2.4925   -0.0044 C   0  0  0  0  0  0  0  0  0  0  0  0
   -3.0827    1.0405    0.0569 C   0  0  0  0  0  0  0  0  0  0  0  0
   -1.9443    4.0918    0.1537 C   0  0  0  0  0  0  0  0  0  0  0  0
    0.4301    1.1416   -0.4635 C   0  0  0  0  0  0  0  0  0  0  0  0
   -4.8621   -0.7406   -0.0141 C   0  0  0  0  0  0  0  0  0  0  0  0
   -5.7402   -1.4946   -0.7928 C   0  0  0  0  0  0  0  0  0  0  0  0
   -4.8201   -0.9263    1.3676 C   0  0  0  0  0  0  0  0  0  0  0  0
    3.8364   -0.1580   -0.1685 C   0  0  0  0  0  0  0  0  0  0  0  0
    2.4172   -0.1561   -0.5264 C   0  0  0  0  0  0  0  0  0  0  0  0
   -6.5761   -2.4344   -0.1895 C   0  0  0  0  0  0  0  0  0  0  0  0
   -5.6561   -1.8661    1.9709 C   0  0  0  0  0  0  0  0  0  0  0  0
    4.5728    0.8305    0.4466 C   0  0  0  0  0  0  0  0  0  0  0  0
   -6.5340   -2.6201    1.1923 C   0  0  0  0  0  0  0  0  0  0  0  0
    6.1845   -0.8174    0.1490 C   0  0  0  0  0  0  0  0  0  0  0  0
    5.9330    0.4485    0.6305 C   0  0  0  0  0  0  0  0  0  0  0  0
   -1.8493    1.2912   -1.6675 H   0  0  0  0  0  0  0  0  0  0  0  0
   -3.0944    2.5393   -1.4886 H   0  0  0  0  0  0  0  0  0  0  0  0
   -2.8180    3.9326    0.7924 H   0  0  0  0  0  0  0  0  0  0  0  0
   -1.2057    4.6768    0.7074 H   0  0  0  0  0  0  0  0  0  0  0  0
   -2.2398    4.6528   -0.7380 H   0  0  0  0  0  0  0  0  0  0  0  0
    0.2943    1.0625   -1.5468 H   0  0  0  0  0  0  0  0  0  0  0  0
   -0.1318    0.3574    0.0545 H   0  0  0  0  0  0  0  0  0  0  0  0
   -4.0798    0.3111   -1.6049 H   0  0  0  0  0  0  0  0  0  0  0  0
   -4.1742   -0.3889    2.0457 H   0  0  0  0  0  0  0  0  0  0  0  0
   -7.2663   -3.0301   -0.7817 H   0  0  0  0  0  0  0  0  0  0  0  0
   -5.6246   -2.0120    3.0469 H   0  0  0  0  0  0  0  0  0  0  0  0
    4.1682    1.7861    0.7558 H   0  0  0  0  0  0  0  0  0  0  0  0
   -7.1848   -3.3517    1.6621 H   0  0  0  0  0  0  0  0  0  0  0  0
    6.6799    1.0809    1.0943 H   0  0  0  0  0  0  0  0  0  0  0  0
  1 18  1  0  0  0  0
  2 20  1  0  0  0  0
  2 26  1  0  0  0  0
  3 16  1  0  0  0  0
  3 21  1  0  0  0  0
  4 13  2  0  0  0  0
  5 14  2  0  0  0  0
  6 21  2  0  0  0  0
  7 11  1  0  0  0  0
  8 11  2  0  0  0  0
  9 12  1  0  0  0  0
  9 13  1  0  0  0  0
  9 15  1  0  0  0  0
 10 14  1  0  0  0  0
 10 17  1  0  0  0  0
 10 35  1  0  0  0  0
 11 26  1  0  0  0  0
 12 14  1  0  0  0  0
 12 28  1  0  0  0  0
 12 29  1  0  0  0  0
 13 16  1  0  0  0  0
 15 30  1  0  0  0  0
 15 31  1  0  0  0  0
 15 32  1  0  0  0  0
 16 33  1  0  0  0  0
 16 34  1  0  0  0  0
 17 18  1  0  0  0  0
 17 19  2  0  0  0  0
 18 22  2  0  0  0  0
 19 23  1  0  0  0  0
 19 36  1  0  0  0  0
 20 21  1  0  0  0  0
 20 24  2  0  0  0  0
 22 25  1  0  0  0  0
 22 37  1  0  0  0  0
 23 25  2  0  0  0  0
 23 38  1  0  0  0  0
 24 27  1  0  0  0  0
 24 39  1  0  0  0  0
 25 40  1  0  0  0  0
 26 27  2  0  0  0  0
 27 41  1  0  0  0  0
M  CHG  2   7  -1  11   1
M  END
> <PUBCHEM_COMPOUND_CID>
4845688

> <PUBCHEM_CONFORMER_RMSD>
1.4

> <PUBCHEM_CONFORMER_DIVERSEORDER>
1
61
78
44
18
62
5
4
90
13
25
98
80
52
60
54
56
24
82
21
68
2
50
10
65
29
77
8
99
49
79
15
23
58
76
93
91
88
36
59
67
87
12
101
35
6
57
73
92
37
34
55
33
51
81
30
46
28
95
3
27
85
9
64
38
43
31
26
103
97
14
53
72
63
89
41
39
94
100
69
40
45
47
16
102
20
48
11
104
75
17
42
22
19
32
71
70
84
96
66
7
74
86
83

> <PUBCHEM_MMFF94_PARTIAL_CHARGES>
34
1 -0.18
10 -0.55
11 0.96
12 0.36
13 0.57
14 0.57
15 0.3
16 0.34
17 0.12
18 0.18
19 -0.15
2 -0.08
20 -0.05
21 0.81
22 -0.15
23 -0.15
24 -0.15
25 -0.15
26 0.12
27 -0.15
3 -0.43
35 0.37
36 0.15
37 0.15
38 0.15
39 0.15
4 -0.57
40 0.15
41 0.15
5 -0.57
6 -0.57
7 -0.52
8 -0.52
9 -0.66

> <PUBCHEM_EFFECTIVE_ROTOR_COUNT>
10

> <PUBCHEM_PHARMACOPHORE_FEATURES>
9
1 10 donor
1 4 acceptor
1 5 acceptor
1 6 acceptor
1 7 acceptor
1 7 anion
1 8 acceptor
5 2 20 24 26 27 rings
6 17 18 19 22 23 25 rings

> <PUBCHEM_HEAVY_ATOM_COUNT>
27

> <PUBCHEM_ATOM_DEF_STEREO_COUNT>
0

> <PUBCHEM_ATOM_UDEF_STEREO_COUNT>
0

> <PUBCHEM_BOND_DEF_STEREO_COUNT>
0

> <PUBCHEM_BOND_UDEF_STEREO_COUNT>
0

> <PUBCHEM_ISOTOPIC_ATOM_COUNT>
0

> <PUBCHEM_COMPONENT_COUNT>
1

> <PUBCHEM_CACTVS_TAUTO_COUNT>
2

> <PUBCHEM_CONFORMER_ID>
0049F07800000001

> <PUBCHEM_MMFF94_ENERGY>
64.5363

> <PUBCHEM_FEATURE_SELFOVERLAP>
45.753

> <PUBCHEM_SHAPE_FINGERPRINT>
10 15 12463575084299078103
10066227 112 9007056859870540346
11211813 128 18273216392326828950
11410812 94 16153974773858308334
11475781 23 7925910401062660746
12106331 60 18336536145182001026
12166972 35 17676211302910504692
12218070 45 16987989626393188695
12760667 363 18335421283752293001
13631057 29 18261110742817500744
13782708 43 18342740659807711434
14211702 104 18337395920752848222
14931854 50 17385718106307251435
14950920 106 16271919467610752587
15183329 4 12757141398637998811
15350500 55 13038641613352200299
15510800 12 18187930620343092507
16992779 147 16342559843053624408
17780758 139 17988928838738339577
19246450 95 18200331931358681409
20621476 66 10375868589218943722
21033650 10 16153974804208532765
21054139 6 17822013065257762434
21095123 293 13038902270664722930
21307412 95 17749666420290617811
21756936 100 12895346694772066973
23389318 12 17967541199085036830
23559900 14 17532935129018714477
25025965 108 18127670682797787990
270888 7 9943535093954894889
2747138 104 18342173371810720920
2835820 33 18408038525620686778
3383291 50 18261674865049906123
392239 28 17060623330163773299
4073 2 18267868268615624836
44880568 143 16877937248147031820
50009960 94 17826779353765744170
5718773 13 18408604781338137122
5937810 71 9078816525255236954
5969126 39 18411975849919485773
636775 8 18339933619823555734
6376802 90 17901381195617584044
6431902 208 18409448077013740495
6712543 237 16415490341659965215
9689198 14 12175628399237381366
999808 66 18408044026503530391

> <PUBCHEM_SHAPE_MULTIPOLES>
511.21
22.78
3.75
1.4
23.01
3.26
-0.24
-24.94
2.28
-2.22
0.36
-3.12
-0.71
1.09

> <PUBCHEM_SHAPE_SELFOVERLAP>
1054.452

> <PUBCHEM_SHAPE_VOLUME>
293.6

> <PUBCHEM_COORDINATE_TYPE>
2
5
10

$$$$
