4603685
  -OEChem-01171811533D

 53 55  0     1  0  0  0  0  0999 V2000
    7.0966   -1.4155    0.6479 Cl  0  0  0  0  0  0  0  0  0  0  0  0
    7.8752    1.3912    0.9476 Cl  0  0  0  0  0  0  0  0  0  0  0  0
   -4.1429   -0.6494    1.6548 S   0  0  0  0  0  0  0  0  0  0  0  0
    3.1559   -0.3502   -0.2575 O   0  0  0  0  0  0  0  0  0  0  0  0
    4.9901   -1.0287   -1.4925 O   0  0  0  0  0  0  0  0  0  0  0  0
    0.6597   -0.3551    0.4942 O   0  0  0  0  0  0  0  0  0  0  0  0
   -5.3074   -1.3833    2.1116 O   0  0  0  0  0  0  0  0  0  0  0  0
   -3.1280   -0.2209    2.5981 O   0  0  0  0  0  0  0  0  0  0  0  0
   -4.6397    0.6907    0.7274 N   0  0  0  0  0  0  0  0  0  0  0  0
   -2.5871    1.7938    0.8050 N   0  0  0  0  0  0  0  0  0  0  0  0
    0.0400   -2.0519   -1.0192 N   0  0  0  0  0  0  0  0  0  0  0  0
    5.2567    0.6756    0.1283 C   0  0  1  0  0  0  0  0  0  0  0  0
    6.5348    0.2516    0.7907 C   0  0  0  0  0  0  0  0  0  0  0  0
    5.3094    0.5066    1.6184 C   0  0  0  0  0  0  0  0  0  0  0  0
    5.1457    2.0859   -0.3662 C   0  0  0  0  0  0  0  0  0  0  0  0
    4.4718   -0.3278   -0.6350 C   0  0  0  0  0  0  0  0  0  0  0  0
    2.3312   -1.2771   -0.9330 C   0  0  0  0  0  0  0  0  0  0  0  0
   -3.8806    2.9485   -1.7979 C   0  0  0  0  0  0  0  0  0  0  0  0
   -2.5287    3.6589   -1.8449 C   0  0  0  0  0  0  0  0  0  0  0  0
   -4.4745    2.8857   -0.3951 C   0  0  0  0  0  0  0  0  0  0  0  0
   -1.4304    2.9862   -1.0214 C   0  0  0  0  0  0  0  0  0  0  0  0
    0.9228   -1.1631   -0.3913 C   0  0  0  0  0  0  0  0  0  0  0  0
   -3.8116    1.7985    0.4133 C   0  0  0  0  0  0  0  0  0  0  0  0
   -1.7365    2.9336    0.4723 C   0  0  0  0  0  0  0  0  0  0  0  0
   -3.3288   -1.6264    0.4267 C   0  0  0  0  0  0  0  0  0  0  0  0
   -1.3235   -2.2249   -0.7805 C   0  0  0  0  0  0  0  0  0  0  0  0
   -1.9652   -1.4542    0.1890 C   0  0  0  0  0  0  0  0  0  0  0  0
   -4.0507   -2.5695   -0.3048 C   0  0  0  0  0  0  0  0  0  0  0  0
   -2.0454   -3.1681   -1.5119 C   0  0  0  0  0  0  0  0  0  0  0  0
   -3.4090   -3.3404   -1.2741 C   0  0  0  0  0  0  0  0  0  0  0  0
    5.2777    1.3895    2.2476 H   0  0  0  0  0  0  0  0  0  0  0  0
    4.8010   -0.3412    2.0658 H   0  0  0  0  0  0  0  0  0  0  0  0
    4.0972    2.3395   -0.5601 H   0  0  0  0  0  0  0  0  0  0  0  0
    5.6948    2.2020   -1.3067 H   0  0  0  0  0  0  0  0  0  0  0  0
    5.5216    2.8305    0.3435 H   0  0  0  0  0  0  0  0  0  0  0  0
    2.3146   -1.0557   -2.0060 H   0  0  0  0  0  0  0  0  0  0  0  0
    2.6921   -2.2976   -0.7626 H   0  0  0  0  0  0  0  0  0  0  0  0
   -4.5742    3.4967   -2.4470 H   0  0  0  0  0  0  0  0  0  0  0  0
   -3.7812    1.9397   -2.2173 H   0  0  0  0  0  0  0  0  0  0  0  0
   -2.6505    4.6966   -1.5101 H   0  0  0  0  0  0  0  0  0  0  0  0
   -2.1984    3.7082   -2.8897 H   0  0  0  0  0  0  0  0  0  0  0  0
   -4.3735    3.8447    0.1237 H   0  0  0  0  0  0  0  0  0  0  0  0
   -5.5475    2.6768   -0.4727 H   0  0  0  0  0  0  0  0  0  0  0  0
   -0.5085    3.5632   -1.1650 H   0  0  0  0  0  0  0  0  0  0  0  0
   -1.2372    1.9781   -1.4084 H   0  0  0  0  0  0  0  0  0  0  0  0
   -2.1544    3.8764    0.8437 H   0  0  0  0  0  0  0  0  0  0  0  0
   -0.7919    2.7906    1.0103 H   0  0  0  0  0  0  0  0  0  0  0  0
   -5.6224    0.7045    0.4261 H   0  0  0  0  0  0  0  0  0  0  0  0
    0.4344   -2.6516   -1.7410 H   0  0  0  0  0  0  0  0  0  0  0  0
   -1.4487   -0.7164    0.7832 H   0  0  0  0  0  0  0  0  0  0  0  0
   -5.1145   -2.7147   -0.1399 H   0  0  0  0  0  0  0  0  0  0  0  0
   -1.5585   -3.7753   -2.2708 H   0  0  0  0  0  0  0  0  0  0  0  0
   -3.9714   -4.0737   -1.8449 H   0  0  0  0  0  0  0  0  0  0  0  0
  1 13  1  0  0  0  0
  2 13  1  0  0  0  0
  3  7  2  0  0  0  0
  3  8  2  0  0  0  0
  3  9  1  0  0  0  0
  3 25  1  0  0  0  0
  4 16  1  0  0  0  0
  4 17  1  0  0  0  0
  5 16  2  0  0  0  0
  6 22  2  0  0  0  0
  9 23  1  0  0  0  0
  9 48  1  0  0  0  0
 10 23  2  0  0  0  0
 10 24  1  0  0  0  0
 11 22  1  0  0  0  0
 11 26  1  0  0  0  0
 11 49  1  0  0  0  0
 12 13  1  0  0  0  0
 12 14  1  0  0  0  0
 12 15  1  0  0  0  0
 12 16  1  0  0  0  0
 13 14  1  0  0  0  0
 14 31  1  0  0  0  0
 14 32  1  0  0  0  0
 15 33  1  0  0  0  0
 15 34  1  0  0  0  0
 15 35  1  0  0  0  0
 17 22  1  0  0  0  0
 17 36  1  0  0  0  0
 17 37  1  0  0  0  0
 18 19  1  0  0  0  0
 18 20  1  0  0  0  0
 18 38  1  0  0  0  0
 18 39  1  0  0  0  0
 19 21  1  0  0  0  0
 19 40  1  0  0  0  0
 19 41  1  0  0  0  0
 20 23  1  0  0  0  0
 20 42  1  0  0  0  0
 20 43  1  0  0  0  0
 21 24  1  0  0  0  0
 21 44  1  0  0  0  0
 21 45  1  0  0  0  0
 24 46  1  0  0  0  0
 24 47  1  0  0  0  0
 25 27  1  0  0  0  0
 25 28  2  0  0  0  0
 26 27  2  0  0  0  0
 26 29  1  0  0  0  0
 27 50  1  0  0  0  0
 28 30  1  0  0  0  0
 28 51  1  0  0  0  0
 29 30  2  0  0  0  0
 29 52  1  0  0  0  0
 30 53  1  0  0  0  0
M  END
> <PUBCHEM_COMPOUND_CID>
4603685

> <PUBCHEM_CONFORMER_RMSD>
1.6

> <PUBCHEM_CONFORMER_DIVERSEORDER>
1
67
12
23
42
10
69
7
59
8
64
70
44
31
65
56
71
39
75
24
2
68
51
66
36
60
53
19
26
74
14
29
4
43
48
33
46
61
17
25
5
63
21
32
45
20
28
72
47
27
73
40
57
41
55
49
38
77
52
13
34
37
30
22
76
18
35
58
9
16
6
62
3
11
54
50
15

> <PUBCHEM_MMFF94_PARTIAL_CHARGES>
35
1 -0.23
10 -0.7
11 -0.55
12 -0.09
13 0.45
14 -0.2
15 0.09
16 0.72
17 0.34
2 -0.23
20 0.06
22 0.57
23 0.63
24 0.25
25 -0.01
26 0.12
27 -0.15
28 -0.15
29 -0.15
3 1.45
30 -0.15
31 0.1
32 0.1
4 -0.43
48 0.42
49 0.37
5 -0.57
50 0.15
51 0.15
52 0.15
53 0.15
6 -0.57
7 -0.65
8 -0.65
9 -0.79

> <PUBCHEM_EFFECTIVE_ROTOR_COUNT>
10.6

> <PUBCHEM_PHARMACOPHORE_FEATURES>
9
1 10 acceptor
1 11 donor
1 5 acceptor
1 6 acceptor
1 7 acceptor
1 8 acceptor
1 9 donor
6 25 26 27 28 29 30 rings
7 10 18 19 20 21 23 24 rings

> <PUBCHEM_HEAVY_ATOM_COUNT>
30

> <PUBCHEM_ATOM_DEF_STEREO_COUNT>
0

> <PUBCHEM_ATOM_UDEF_STEREO_COUNT>
1

> <PUBCHEM_BOND_DEF_STEREO_COUNT>
0

> <PUBCHEM_BOND_UDEF_STEREO_COUNT>
0

> <PUBCHEM_ISOTOPIC_ATOM_COUNT>
0

> <PUBCHEM_COMPONENT_COUNT>
1

> <PUBCHEM_CACTVS_TAUTO_COUNT>
4

> <PUBCHEM_CONFORMER_ID>
00463F2500000001

> <PUBCHEM_MMFF94_ENERGY>
55.7258

> <PUBCHEM_FEATURE_SELFOVERLAP>
45.696

> <PUBCHEM_SHAPE_FINGERPRINT>
100830 39 18411695457833611688
10087517 78 18340202002932605398
10290309 65 18201446830894942486
10554248 39 16630527315983586812
10816530 145 18265049322428509159
10864689 126 18124883356749664076
11135609 187 18122335784641315829
11595378 159 18260824895537715762
12596602 18 17313108596271261304
12988421 55 18060146401118066459
14395042 24 18055650653714676459
14950920 106 17023476346746087304
15264996 74 18199162114493670813
15276724 80 18267300014150895892
15513586 35 17974591369709526576
17492 54 18190721082966666333
17686467 74 17912072056802088874
19309040 13 15625123935594164635
21859007 373 18192713345979734582
25019877 29 17059510637788548263
3504750 166 18342165700831091982
376196 1 17540810599842817189
44249763 50 18342444959651377096
445580 44 18260270762999223861
469060 322 18336833090847261235

> <PUBCHEM_SHAPE_MULTIPOLES>
580.69
17.54
4.5
1.8
37.48
1.77
0.46
2.93
5.7
-7.42
-2.57
-1.79
-0.01
1.41

> <PUBCHEM_SHAPE_SELFOVERLAP>
1181.296

> <PUBCHEM_SHAPE_VOLUME>
337.4

> <PUBCHEM_COORDINATE_TYPE>
2
5
10

$$$$
