7841794
  -OEChem-01171812113D

 57 58  0     0  0  0  0  0  0999 V2000
   -3.5798    2.2755    0.8767 O   0  0  0  0  0  0  0  0  0  0  0  0
   -3.3068   -2.2599   -0.0045 O   0  0  0  0  0  0  0  0  0  0  0  0
   -0.1231   -2.5002    0.5090 O   0  0  0  0  0  0  0  0  0  0  0  0
   -0.9679   -2.0406   -2.8619 O   0  0  0  0  0  0  0  0  0  0  0  0
    2.8605   -1.0200    1.3627 O   0  0  0  0  0  0  0  0  0  0  0  0
    1.4933   -4.1288    0.7691 O   0  0  0  0  0  0  0  0  0  0  0  0
   -1.8902    1.4853   -0.5066 N   0  0  0  0  0  0  0  0  0  0  0  0
   -3.4786    0.0071    0.4615 N   0  0  0  0  0  0  0  0  0  0  0  0
   -0.1254    0.6814   -1.9424 N   0  0  0  0  0  0  0  0  0  0  0  0
   -0.3286    3.2232    0.3632 C   0  0  0  0  0  0  0  0  0  0  0  0
   -1.3754    2.8473   -0.6914 C   0  0  0  0  0  0  0  0  0  0  0  0
   -1.2312    0.4217   -1.1544 C   0  0  0  0  0  0  0  0  0  0  0  0
    0.2393    4.6235    0.1211 C   0  0  0  0  0  0  0  0  0  0  0  0
   -0.9417    3.1438    1.7618 C   0  0  0  0  0  0  0  0  0  0  0  0
   -3.0195    1.3273    0.3151 C   0  0  0  0  0  0  0  0  0  0  0  0
   -1.7032   -0.8375   -0.9869 C   0  0  0  0  0  0  0  0  0  0  0  0
   -2.8992   -1.1058   -0.1368 C   0  0  0  0  0  0  0  0  0  0  0  0
   -1.0507   -1.9956   -1.6407 C   0  0  0  0  0  0  0  0  0  0  0  0
   -4.6511   -0.2116    1.3044 C   0  0  0  0  0  0  0  0  0  0  0  0
   -0.5184   -3.0683   -0.7233 C   0  0  0  0  0  0  0  0  0  0  0  0
    1.2367   -2.4130    2.4484 C   0  0  0  0  0  0  0  0  0  0  0  0
    0.9040   -3.1308    1.1634 C   0  0  0  0  0  0  0  0  0  0  0  0
    1.6955   -0.9914    2.1777 C   0  0  0  0  0  0  0  0  0  0  0  0
    3.0755    0.0654    0.5546 C   0  0  0  0  0  0  0  0  0  0  0  0
    3.1480   -0.0797   -0.8309 C   0  0  0  0  0  0  0  0  0  0  0  0
    3.2223    1.3266    1.1323 C   0  0  0  0  0  0  0  0  0  0  0  0
    3.3672    1.0364   -1.6385 C   0  0  0  0  0  0  0  0  0  0  0  0
    2.9933   -1.4217   -1.4668 C   0  0  0  0  0  0  0  0  0  0  0  0
    3.4414    2.4426    0.3246 C   0  0  0  0  0  0  0  0  0  0  0  0
    3.5139    2.2975   -1.0606 C   0  0  0  0  0  0  0  0  0  0  0  0
    0.4981    2.5072    0.3184 H   0  0  0  0  0  0  0  0  0  0  0  0
   -1.0051    2.9936   -1.7118 H   0  0  0  0  0  0  0  0  0  0  0  0
   -2.2186    3.5472   -0.6142 H   0  0  0  0  0  0  0  0  0  0  0  0
    1.0021    4.8701    0.8669 H   0  0  0  0  0  0  0  0  0  0  0  0
    0.7057    4.6838   -0.8678 H   0  0  0  0  0  0  0  0  0  0  0  0
   -0.5464    5.3848    0.1729 H   0  0  0  0  0  0  0  0  0  0  0  0
   -1.1988    2.1193    2.0442 H   0  0  0  0  0  0  0  0  0  0  0  0
   -0.2129    3.4852    2.5069 H   0  0  0  0  0  0  0  0  0  0  0  0
   -1.8210    3.7880    1.8605 H   0  0  0  0  0  0  0  0  0  0  0  0
   -4.4319    0.1599    2.3107 H   0  0  0  0  0  0  0  0  0  0  0  0
   -4.9404   -1.2633    1.3638 H   0  0  0  0  0  0  0  0  0  0  0  0
   -5.4857    0.3703    0.9001 H   0  0  0  0  0  0  0  0  0  0  0  0
    0.3269    1.5837   -1.9240 H   0  0  0  0  0  0  0  0  0  0  0  0
    0.3432   -0.0803   -2.4166 H   0  0  0  0  0  0  0  0  0  0  0  0
    0.3282   -3.5372   -1.2381 H   0  0  0  0  0  0  0  0  0  0  0  0
   -1.2958   -3.8194   -0.5553 H   0  0  0  0  0  0  0  0  0  0  0  0
    2.0372   -2.9769    2.9412 H   0  0  0  0  0  0  0  0  0  0  0  0
    0.3594   -2.4336    3.1028 H   0  0  0  0  0  0  0  0  0  0  0  0
    1.9412   -0.5030    3.1275 H   0  0  0  0  0  0  0  0  0  0  0  0
    0.8934   -0.4185    1.6940 H   0  0  0  0  0  0  0  0  0  0  0  0
    3.1753    1.4551    2.2102 H   0  0  0  0  0  0  0  0  0  0  0  0
    3.4225    0.9397   -2.7195 H   0  0  0  0  0  0  0  0  0  0  0  0
    3.5294   -2.1910   -0.9014 H   0  0  0  0  0  0  0  0  0  0  0  0
    1.9370   -1.6899   -1.5240 H   0  0  0  0  0  0  0  0  0  0  0  0
    3.4027   -1.4333   -2.4828 H   0  0  0  0  0  0  0  0  0  0  0  0
    3.5552    3.4247    0.7743 H   0  0  0  0  0  0  0  0  0  0  0  0
    3.6821    3.1670   -1.6893 H   0  0  0  0  0  0  0  0  0  0  0  0
  1 15  2  0  0  0  0
  2 17  2  0  0  0  0
  3 20  1  0  0  0  0
  3 22  1  0  0  0  0
  4 18  2  0  0  0  0
  5 23  1  0  0  0  0
  5 24  1  0  0  0  0
  6 22  2  0  0  0  0
  7 11  1  0  0  0  0
  7 12  1  0  0  0  0
  7 15  1  0  0  0  0
  8 15  1  0  0  0  0
  8 17  1  0  0  0  0
  8 19  1  0  0  0  0
  9 12  1  0  0  0  0
  9 43  1  0  0  0  0
  9 44  1  0  0  0  0
 10 11  1  0  0  0  0
 10 13  1  0  0  0  0
 10 14  1  0  0  0  0
 10 31  1  0  0  0  0
 11 32  1  0  0  0  0
 11 33  1  0  0  0  0
 12 16  2  0  0  0  0
 13 34  1  0  0  0  0
 13 35  1  0  0  0  0
 13 36  1  0  0  0  0
 14 37  1  0  0  0  0
 14 38  1  0  0  0  0
 14 39  1  0  0  0  0
 16 17  1  0  0  0  0
 16 18  1  0  0  0  0
 18 20  1  0  0  0  0
 19 40  1  0  0  0  0
 19 41  1  0  0  0  0
 19 42  1  0  0  0  0
 20 45  1  0  0  0  0
 20 46  1  0  0  0  0
 21 22  1  0  0  0  0
 21 23  1  0  0  0  0
 21 47  1  0  0  0  0
 21 48  1  0  0  0  0
 23 49  1  0  0  0  0
 23 50  1  0  0  0  0
 24 25  1  0  0  0  0
 24 26  2  0  0  0  0
 25 27  2  0  0  0  0
 25 28  1  0  0  0  0
 26 29  1  0  0  0  0
 26 51  1  0  0  0  0
 27 30  1  0  0  0  0
 27 52  1  0  0  0  0
 28 53  1  0  0  0  0
 28 54  1  0  0  0  0
 28 55  1  0  0  0  0
 29 30  2  0  0  0  0
 29 56  1  0  0  0  0
 30 57  1  0  0  0  0
M  END
> <PUBCHEM_COMPOUND_CID>
7841794

> <PUBCHEM_CONFORMER_RMSD>
1.4

> <PUBCHEM_CONFORMER_DIVERSEORDER>
1
72
28
69
45
16
82
39
14
90
30
6
19
17
67
11
89
44
10
29
62
58
43
35
12
38
81
18
40
24
41
64
48
51
26
77
55
9
79
71
31
37
2
5
57
50
70
36
91
42
52
32
75
8
20
4
46
86
47
33
56
49
22
74
68
13
3
59
27
84
54
87
60
63
85
65
80
15
76
78
34
25
61
83
23
21
66
88
73
53
7

> <PUBCHEM_MMFF94_PARTIAL_CHARGES>
33
1 -0.57
11 0.3
12 0.21
15 0.69
16 0.03
17 0.62
18 0.49
19 0.3
2 -0.57
20 0.34
21 0.06
22 0.66
23 0.28
24 0.08
25 -0.14
26 -0.15
27 -0.15
28 0.14
29 -0.15
3 -0.43
30 -0.15
4 -0.57
43 0.4
44 0.4
5 -0.36
51 0.15
52 0.15
56 0.15
57 0.15
6 -0.57
7 -0.47
8 -0.42
9 -0.9

> <PUBCHEM_EFFECTIVE_ROTOR_COUNT>
10

> <PUBCHEM_PHARMACOPHORE_FEATURES>
11
1 1 acceptor
1 16 anion
1 2 acceptor
1 4 acceptor
1 5 acceptor
1 6 acceptor
1 9 cation
1 9 donor
3 10 13 14 hydrophobe
6 24 25 26 27 29 30 rings
6 7 8 12 15 16 17 rings

> <PUBCHEM_HEAVY_ATOM_COUNT>
30

> <PUBCHEM_ATOM_DEF_STEREO_COUNT>
0

> <PUBCHEM_ATOM_UDEF_STEREO_COUNT>
0

> <PUBCHEM_BOND_DEF_STEREO_COUNT>
0

> <PUBCHEM_BOND_UDEF_STEREO_COUNT>
0

> <PUBCHEM_ISOTOPIC_ATOM_COUNT>
0

> <PUBCHEM_COMPONENT_COUNT>
1

> <PUBCHEM_CACTVS_TAUTO_COUNT>
7

> <PUBCHEM_CONFORMER_ID>
0077A80200000001

> <PUBCHEM_MMFF94_ENERGY>
80.1563

> <PUBCHEM_FEATURE_SELFOVERLAP>
55.822

> <PUBCHEM_SHAPE_FINGERPRINT>
1100329 8 17760363688485147315
12156800 1 14254948841580535504
12422481 6 17256781431909738754
12553582 1 18124306361999808292
12633257 1 17975395121678783752
128993 33 18272642429122166530
13122387 1 16394937939057722640
13140716 1 18410852135997859860
13402501 40 15884042869310678232
14251757 17 17483981288899146294
14787075 74 17973448985902402407
18981168 100 16987694853939258983
20764821 26 17180527499697854288
23559900 14 17839470986044643197
3493558 16 14686151888872979145
35225 105 18188788217937550614
3797600 57 18335146353662169946
392239 28 18114760307695294547
469060 322 15143207125756740434
57091435 65 18265329508698188298
6287921 2 18333730187202711898
7097593 13 17973719177894141576

> <PUBCHEM_SHAPE_MULTIPOLES>
567.23
6.55
5.27
2.15
0.76
1.27
0.04
1.72
-0.47
-0.26
-1.3
-0.58
-1.15
-1.27

> <PUBCHEM_SHAPE_SELFOVERLAP>
1183.291

> <PUBCHEM_SHAPE_VOLUME>
319.7

> <PUBCHEM_COORDINATE_TYPE>
2
5
10

$$$$
