24816679
  -OEChem-01171812093D

 46 49  0     0  0  0  0  0  0999 V2000
    3.2718    1.8981    2.8236 Cl  0  0  0  0  0  0  0  0  0  0  0  0
    2.1163   -0.4071    1.0657 O   0  0  0  0  0  0  0  0  0  0  0  0
    0.9751   -3.4443    0.3808 O   0  0  0  0  0  0  0  0  0  0  0  0
   -5.4530   -1.2092    0.2113 O   0  0  0  0  0  0  0  0  0  0  0  0
   -4.5112    1.5811   -1.3080 O   0  0  0  0  0  0  0  0  0  0  0  0
   -0.5603   -1.6916    0.5603 N   0  0  0  0  0  0  0  0  0  0  0  0
   -3.1700   -0.8710   -0.1612 N   0  0  0  0  0  0  0  0  0  0  0  0
   -1.6955   -2.5620    0.8662 C   0  0  0  0  0  0  0  0  0  0  0  0
   -0.8848   -0.2594    0.5449 C   0  0  0  0  0  0  0  0  0  0  0  0
   -2.8409   -2.2983   -0.1057 C   0  0  0  0  0  0  0  0  0  0  0  0
   -2.0290    0.0202   -0.4271 C   0  0  0  0  0  0  0  0  0  0  0  0
    0.7067   -2.2441    0.3673 C   0  0  0  0  0  0  0  0  0  0  0  0
    1.8269   -1.3303    0.1120 C   0  0  0  0  0  0  0  0  0  0  0  0
   -4.4985   -0.4655   -0.0109 C   0  0  0  0  0  0  0  0  0  0  0  0
    2.6881   -1.2154   -0.9547 C   0  0  0  0  0  0  0  0  0  0  0  0
    3.5717   -0.1488   -0.6427 C   0  0  0  0  0  0  0  0  0  0  0  0
    3.1785    0.3142    0.6088 C   0  0  0  0  0  0  0  0  0  0  0  0
   -4.8061    0.9657   -0.1331 C   0  0  0  0  0  0  0  0  0  0  0  0
    4.6589    0.4758   -1.2786 C   0  0  0  0  0  0  0  0  0  0  0  0
    2.6919   -2.0369   -2.1807 C   0  0  0  0  0  0  0  0  0  0  0  0
    3.7960    1.3666    1.2823 C   0  0  0  0  0  0  0  0  0  0  0  0
    5.3004    1.5375   -0.6258 C   0  0  0  0  0  0  0  0  0  0  0  0
    4.8747    1.9730    0.6317 C   0  0  0  0  0  0  0  0  0  0  0  0
   -5.3642    1.8578    0.7527 C   0  0  0  0  0  0  0  0  0  0  0  0
    6.4570    2.2122   -1.2871 C   0  0  0  0  0  0  0  0  0  0  0  0
   -5.4155    3.1012    0.0788 C   0  0  0  0  0  0  0  0  0  0  0  0
   -4.8851    2.8804   -1.1708 C   0  0  0  0  0  0  0  0  0  0  0  0
   -2.0055   -2.3396    1.8942 H   0  0  0  0  0  0  0  0  0  0  0  0
   -1.4035   -3.6160    0.8264 H   0  0  0  0  0  0  0  0  0  0  0  0
   -0.0302    0.3554    0.2600 H   0  0  0  0  0  0  0  0  0  0  0  0
   -1.1717    0.0162    1.5666 H   0  0  0  0  0  0  0  0  0  0  0  0
   -2.5532   -2.5959   -1.1213 H   0  0  0  0  0  0  0  0  0  0  0  0
   -3.7163   -2.8908    0.1774 H   0  0  0  0  0  0  0  0  0  0  0  0
   -1.7109   -0.1715   -1.4587 H   0  0  0  0  0  0  0  0  0  0  0  0
   -2.3050    1.0729   -0.3496 H   0  0  0  0  0  0  0  0  0  0  0  0
    4.9921    0.1412   -2.2568 H   0  0  0  0  0  0  0  0  0  0  0  0
    3.0714   -1.4717   -3.0380 H   0  0  0  0  0  0  0  0  0  0  0  0
    1.6829   -2.3776   -2.4353 H   0  0  0  0  0  0  0  0  0  0  0  0
    3.3263   -2.9187   -2.0452 H   0  0  0  0  0  0  0  0  0  0  0  0
    5.3916    2.8016    1.1131 H   0  0  0  0  0  0  0  0  0  0  0  0
   -5.6936    1.6422    1.7592 H   0  0  0  0  0  0  0  0  0  0  0  0
    6.1096    3.0811   -1.8548 H   0  0  0  0  0  0  0  0  0  0  0  0
    7.1933    2.5452   -0.5478 H   0  0  0  0  0  0  0  0  0  0  0  0
    6.9760    1.5321   -1.9712 H   0  0  0  0  0  0  0  0  0  0  0  0
   -5.7916    4.0408    0.4567 H   0  0  0  0  0  0  0  0  0  0  0  0
   -4.7127    3.5095   -2.0318 H   0  0  0  0  0  0  0  0  0  0  0  0
  1 21  1  0  0  0  0
  2 13  1  0  0  0  0
  2 17  1  0  0  0  0
  3 12  2  0  0  0  0
  4 14  2  0  0  0  0
  5 18  1  0  0  0  0
  5 27  1  0  0  0  0
  6  8  1  0  0  0  0
  6  9  1  0  0  0  0
  6 12  1  0  0  0  0
  7 10  1  0  0  0  0
  7 11  1  0  0  0  0
  7 14  1  0  0  0  0
  8 10  1  0  0  0  0
  8 28  1  0  0  0  0
  8 29  1  0  0  0  0
  9 11  1  0  0  0  0
  9 30  1  0  0  0  0
  9 31  1  0  0  0  0
 10 32  1  0  0  0  0
 10 33  1  0  0  0  0
 11 34  1  0  0  0  0
 11 35  1  0  0  0  0
 12 13  1  0  0  0  0
 13 15  2  0  0  0  0
 14 18  1  0  0  0  0
 15 16  1  0  0  0  0
 15 20  1  0  0  0  0
 16 17  2  0  0  0  0
 16 19  1  0  0  0  0
 17 21  1  0  0  0  0
 18 24  2  0  0  0  0
 19 22  2  0  0  0  0
 19 36  1  0  0  0  0
 20 37  1  0  0  0  0
 20 38  1  0  0  0  0
 20 39  1  0  0  0  0
 21 23  2  0  0  0  0
 22 23  1  0  0  0  0
 22 25  1  0  0  0  0
 23 40  1  0  0  0  0
 24 26  1  0  0  0  0
 24 41  1  0  0  0  0
 25 42  1  0  0  0  0
 25 43  1  0  0  0  0
 25 44  1  0  0  0  0
 26 27  2  0  0  0  0
 26 45  1  0  0  0  0
 27 46  1  0  0  0  0
M  END
> <PUBCHEM_COMPOUND_CID>
24816679

> <PUBCHEM_CONFORMER_RMSD>
0.8

> <PUBCHEM_CONFORMER_DIVERSEORDER>
1
25
28
21
31
50
57
11
63
55
23
62
54
27
53
45
44
41
47
65
13
18
42
66
49
30
60
56
46
14
26
24
61
6
43
22
64
15
29
20
38
39
52
16
9
59
32
17
40
37
8
12
19
36
34
48
4
3
10
58
35
2
33
51
5
7

> <PUBCHEM_MMFF94_PARTIAL_CHARGES>
31
1 -0.18
10 0.3
11 0.3
12 0.71
13 0.05
14 0.71
15 -0.18
17 0.14
18 0.05
19 -0.15
2 -0.28
20 0.18
21 0.18
22 -0.14
23 -0.15
24 -0.15
25 0.14
26 -0.15
27 -0.01
3 -0.57
36 0.15
4 -0.57
40 0.15
41 0.15
45 0.15
46 0.15
5 -0.28
6 -0.66
7 -0.66
8 0.3
9 0.3

> <PUBCHEM_EFFECTIVE_ROTOR_COUNT>
5.2

> <PUBCHEM_PHARMACOPHORE_FEATURES>
8
1 2 acceptor
1 3 acceptor
1 4 acceptor
1 5 acceptor
5 2 13 15 16 17 rings
5 5 18 24 26 27 rings
6 16 17 19 21 22 23 rings
6 6 7 8 9 10 11 rings

> <PUBCHEM_HEAVY_ATOM_COUNT>
27

> <PUBCHEM_ATOM_DEF_STEREO_COUNT>
0

> <PUBCHEM_ATOM_UDEF_STEREO_COUNT>
0

> <PUBCHEM_BOND_DEF_STEREO_COUNT>
0

> <PUBCHEM_BOND_UDEF_STEREO_COUNT>
0

> <PUBCHEM_ISOTOPIC_ATOM_COUNT>
0

> <PUBCHEM_COMPONENT_COUNT>
1

> <PUBCHEM_CACTVS_TAUTO_COUNT>
1

> <PUBCHEM_CONFORMER_ID>
017AAC2700000001

> <PUBCHEM_MMFF94_ENERGY>
56.1106

> <PUBCHEM_FEATURE_SELFOVERLAP>
40.701

> <PUBCHEM_SHAPE_FINGERPRINT>
10498660 4 18411702062701892465
10622 236 11099869551728413833
10670039 82 18335137626405006756
11059845 2 18119779570134427298
11069576 57 15266512699135349252
11595378 159 16733257950629792029
11720765 8 17771347466223449446
12107183 9 18113885058417881858
12390115 104 18411424999236720065
12422481 6 17095793305295421429
12596602 18 16515677896405448689
12730499 353 18130798905332192374
12769317 202 18201431476333540160
12892183 10 14057267689130421814
13627167 48 18056497061980494001
13944108 23 17837778820121973305
13965767 371 17604140441924580782
14211702 104 9871453323504347205
14341114 328 17095796724289913776
14347329 18 18335983168359023216
14400156 266 18055647123345822398
14537116 161 17273401787351511129
14747281 78 17700440021376951501
14790565 3 18261960738062181620
14848178 5 9871451107459139965
14848178 96 18338794507832230833
14950920 106 13695881311383365309
15163728 17 18334580148355893446
15188451 53 11025803128233480465
15238133 3 18337662114567859312
16067690 210 17458061547567571897
16992828 155 15825470742206636424
17857418 61 10519993655387589349
18608769 82 18266468783465987219
19377110 9 16443072711807746697
20691028 202 18267306431207173369
21033648 29 18270113647284345992
21223535 225 16916799439402042856
21859007 373 18200301247838641920
21968339 14 17703781488806032890
22289505 5 18131354077305036308
22393880 68 17488740211304852278
23559900 14 18128811932975313635
23569914 152 17125661414368699548
25122255 55 9295282846707931489
2747138 104 18042707133875124291
2748736 6 18334005090710641861
2838139 119 18341886454978349860
312425 54 11963654600522206493
3459 39 18261094288560536140
34797466 226 18059295371165841791
350125 39 18189050894127658874
376196 1 18271519896886701346
3918712 181 18334566971613144101
44062 13 10807937064016557787
44317340 157 18059850615932031645
497634 4 17418098750290459451
508706 21 18196927996754341602
5104073 3 18041561343489203443
633830 44 18270674243738217847
636775 72 18192996143997139972
7808743 9 18261111910874440796
7970288 3 10591775259412382556
960060 61 15913321364819444981
9849439 229 18187641376060387867

> <PUBCHEM_SHAPE_MULTIPOLES>
524.08
15.16
3.67
1.64
5.77
0.22
0.36
-14.31
-3.53
2.06
0.04
-2.1
-0.65
1.71

> <PUBCHEM_SHAPE_SELFOVERLAP>
1137.682

> <PUBCHEM_SHAPE_VOLUME>
288

> <PUBCHEM_COORDINATE_TYPE>
2
5
10

$$$$
