2054802
  -OEChem-01171811443D

 27 28  0     0  0  0  0  0  0999 V2000
   -1.8423   -2.7352    0.2965 O   0  0  0  0  0  0  0  0  0  0  0  0
   -1.4773   -0.5028   -0.3484 N   0  0  0  0  0  0  0  0  0  0  0  0
   -0.3537    0.2695   -0.3692 N   0  0  0  0  0  0  0  0  0  0  0  0
   -5.7706    1.6826   -0.1046 N   0  0  0  0  0  0  0  0  0  0  0  0
    0.7233   -0.4931    0.0096 C   0  0  0  0  0  0  0  0  0  0  0  0
   -2.7552    0.0474   -0.7044 C   0  0  0  0  0  0  0  0  0  0  0  0
   -1.1343   -1.7611    0.1061 C   0  0  0  0  0  0  0  0  0  0  0  0
    0.3392   -1.7391    0.3388 C   0  0  0  0  0  0  0  0  0  0  0  0
    2.0932    0.0403    0.0131 C   0  0  0  0  0  0  0  0  0  0  0  0
   -3.4162    0.6872    0.5138 C   0  0  0  0  0  0  0  0  0  0  0  0
    3.1843   -0.8027   -0.2373 C   0  0  0  0  0  0  0  0  0  0  0  0
    2.3261    1.3987    0.2663 C   0  0  0  0  0  0  0  0  0  0  0  0
    4.4842   -0.2967   -0.2346 C   0  0  0  0  0  0  0  0  0  0  0  0
    3.6259    1.9048    0.2688 C   0  0  0  0  0  0  0  0  0  0  0  0
    4.7049    1.0571    0.0185 C   0  0  0  0  0  0  0  0  0  0  0  0
   -4.7316    1.2431    0.1671 C   0  0  0  0  0  0  0  0  0  0  0  0
   -2.6234    0.7702   -1.5182 H   0  0  0  0  0  0  0  0  0  0  0  0
   -3.3821   -0.7706   -1.0793 H   0  0  0  0  0  0  0  0  0  0  0  0
   -0.2689    1.0796   -0.9681 H   0  0  0  0  0  0  0  0  0  0  0  0
    0.9227   -2.5781    0.6753 H   0  0  0  0  0  0  0  0  0  0  0  0
   -3.5295   -0.0553    1.3129 H   0  0  0  0  0  0  0  0  0  0  0  0
   -2.7761    1.4825    0.9142 H   0  0  0  0  0  0  0  0  0  0  0  0
    3.0437   -1.8605   -0.4467 H   0  0  0  0  0  0  0  0  0  0  0  0
    1.5046    2.0809    0.4721 H   0  0  0  0  0  0  0  0  0  0  0  0
    5.3245   -0.9560   -0.4316 H   0  0  0  0  0  0  0  0  0  0  0  0
    3.7983    2.9586    0.4675 H   0  0  0  0  0  0  0  0  0  0  0  0
    5.7169    1.4513    0.0205 H   0  0  0  0  0  0  0  0  0  0  0  0
  1  7  2  0  0  0  0
  2  3  1  0  0  0  0
  2  6  1  0  0  0  0
  2  7  1  0  0  0  0
  3  5  1  0  0  0  0
  3 19  1  0  0  0  0
  4 16  3  0  0  0  0
  5  8  2  0  0  0  0
  5  9  1  0  0  0  0
  6 10  1  0  0  0  0
  6 17  1  0  0  0  0
  6 18  1  0  0  0  0
  7  8  1  0  0  0  0
  8 20  1  0  0  0  0
  9 11  2  0  0  0  0
  9 12  1  0  0  0  0
 10 16  1  0  0  0  0
 10 21  1  0  0  0  0
 10 22  1  0  0  0  0
 11 13  1  0  0  0  0
 11 23  1  0  0  0  0
 12 14  2  0  0  0  0
 12 24  1  0  0  0  0
 13 15  2  0  0  0  0
 13 25  1  0  0  0  0
 14 15  1  0  0  0  0
 14 26  1  0  0  0  0
 15 27  1  0  0  0  0
M  END
> <PUBCHEM_COMPOUND_CID>
2054802

> <PUBCHEM_CONFORMER_RMSD>
0.6

> <PUBCHEM_CONFORMER_DIVERSEORDER>
1
16
15
6
13
14
7
19
18
12
3
17
9
4
11
5
10
2
8

> <PUBCHEM_MMFF94_PARTIAL_CHARGES>
23
1 -0.57
10 0.2
11 -0.15
12 -0.15
13 -0.15
14 -0.15
15 -0.15
16 0.36
19 0.4
2 -0.34
20 0.15
23 0.15
24 0.15
25 0.15
26 0.15
27 0.15
3 -0.52
4 -0.56
5 0.07
6 0.3
7 0.62
8 -0.14
9 0.03

> <PUBCHEM_EFFECTIVE_ROTOR_COUNT>
3

> <PUBCHEM_PHARMACOPHORE_FEATURES>
5
1 1 acceptor
1 3 donor
1 4 acceptor
5 2 3 5 7 8 rings
6 9 11 12 13 14 15 rings

> <PUBCHEM_HEAVY_ATOM_COUNT>
16

> <PUBCHEM_ATOM_DEF_STEREO_COUNT>
0

> <PUBCHEM_ATOM_UDEF_STEREO_COUNT>
0

> <PUBCHEM_BOND_DEF_STEREO_COUNT>
0

> <PUBCHEM_BOND_UDEF_STEREO_COUNT>
0

> <PUBCHEM_ISOTOPIC_ATOM_COUNT>
0

> <PUBCHEM_COMPONENT_COUNT>
1

> <PUBCHEM_CACTVS_TAUTO_COUNT>
3

> <PUBCHEM_CONFORMER_ID>
001F5A9200000001

> <PUBCHEM_MMFF94_ENERGY>
43.2293

> <PUBCHEM_FEATURE_SELFOVERLAP>
25.372

> <PUBCHEM_SHAPE_FINGERPRINT>
10014705 185 18340768229687539105
100836 57 18408609157883554837
10608611 8 18267862977083878496
11405975 8 18336261332079206066
122479 349 18410013268670856939
12500047 106 18341330097493902618
12644460 14 18041558014398925498
14123255 52 18409728431098685465
14252887 29 11963390704699061920
15196674 1 18411699915123090824
15219456 202 18341051942864560870
17834072 8 18201727228103270028
18186145 218 18409160017846539604
20112054 13 18260268542759425781
204376 136 18408324367782610459
20645477 56 18335140903317016212
20645477 70 17418104191581293062
212847 35 18408605846954295492
21524375 3 18343302531312644423
22079108 93 18410011053079441065
23402539 116 18272926124728779813
23402655 69 18272929453576418988
23500284 214 18335702766828321395
23557571 272 18198354037840037534
23558518 356 17827077616945395458
23559900 14 18342738525388183414
25 1 18411978044441772646
293599 30 18410013213010400933
335352 9 18411138005322148694
4047638 21 18411420596631386964
465052 167 10665238024841496185
474 4 18341896268693875489
495365 180 17489294313873245304
5104073 3 18188762981184629608
59755656 520 18334853914124985215
633830 44 18412538816772909302
6430166 295 18410008836428085856
7832392 63 18337388339792179148

> <PUBCHEM_SHAPE_MULTIPOLES>
308.46
10.47
2.17
0.69
6.02
0.71
-0.01
-7.11
-0.13
0.83
0.29
0.09
0
0.24

> <PUBCHEM_SHAPE_SELFOVERLAP>
653.855

> <PUBCHEM_SHAPE_VOLUME>
170.6

> <PUBCHEM_COORDINATE_TYPE>
2
5
10

$$$$
