2399438
  -OEChem-01171811423D

 53 54  0     0  0  0  0  0  0999 V2000
    4.9965    0.7390    1.1281 S   0  0  0  0  0  0  0  0  0  0  0  0
   -7.1194   -2.3156   -0.8559 F   0  0  0  0  0  0  0  0  0  0  0  0
   -8.0817   -0.9493    0.5357 F   0  0  0  0  0  0  0  0  0  0  0  0
    4.0592    1.1590    2.1535 O   0  0  0  0  0  0  0  0  0  0  0  0
    6.3871    0.5180    1.4796 O   0  0  0  0  0  0  0  0  0  0  0  0
    0.3646   -1.3896    0.0041 O   0  0  0  0  0  0  0  0  0  0  0  0
    0.6468   -3.6726    0.0880 O   0  0  0  0  0  0  0  0  0  0  0  0
   -5.8554   -0.7710    0.1647 O   0  0  0  0  0  0  0  0  0  0  0  0
   -1.0214    0.8275   -0.0422 O   0  0  0  0  0  0  0  0  0  0  0  0
    4.9072    1.8235   -0.2098 N   0  0  0  0  0  0  0  0  0  0  0  0
   -3.0928   -0.2814    0.0663 N   0  0  0  0  0  0  0  0  0  0  0  0
    3.5825    2.4072   -0.5410 C   0  0  0  0  0  0  0  0  0  0  0  0
    5.6863    1.4868   -1.4284 C   0  0  0  0  0  0  0  0  0  0  0  0
    4.3815   -0.7733    0.4415 C   0  0  0  0  0  0  0  0  0  0  0  0
    3.0265   -1.0392    0.5074 C   0  0  0  0  0  0  0  0  0  0  0  0
    3.3808    3.6920    0.2366 C   0  0  0  0  0  0  0  0  0  0  0  0
    6.0759    2.7587   -2.1541 C   0  0  0  0  0  0  0  0  0  0  0  0
    5.2696   -1.6562   -0.1441 C   0  0  0  0  0  0  0  0  0  0  0  0
    2.5421   -2.2309   -0.0317 C   0  0  0  0  0  0  0  0  0  0  0  0
    4.7852   -2.8480   -0.6834 C   0  0  0  0  0  0  0  0  0  0  0  0
    3.4215   -3.1354   -0.6271 C   0  0  0  0  0  0  0  0  0  0  0  0
    1.1203   -2.5301    0.0259 C   0  0  0  0  0  0  0  0  0  0  0  0
   -1.0566   -1.5537    0.0573 C   0  0  0  0  0  0  0  0  0  0  0  0
   -4.0287    0.7800    0.0519 C   0  0  0  0  0  0  0  0  0  0  0  0
   -1.7076   -0.1881    0.0229 C   0  0  0  0  0  0  0  0  0  0  0  0
   -5.3862    0.5075    0.1023 C   0  0  0  0  0  0  0  0  0  0  0  0
   -3.5572    2.0818   -0.0123 C   0  0  0  0  0  0  0  0  0  0  0  0
   -6.2967    1.5642    0.0882 C   0  0  0  0  0  0  0  0  0  0  0  0
   -4.4678    3.1385   -0.0265 C   0  0  0  0  0  0  0  0  0  0  0  0
   -5.8374    2.8797    0.0237 C   0  0  0  0  0  0  0  0  0  0  0  0
   -7.1248   -1.0290   -0.4212 C   0  0  0  0  0  0  0  0  0  0  0  0
    3.4634    2.5998   -1.6108 H   0  0  0  0  0  0  0  0  0  0  0  0
    2.7849    1.7015   -0.2900 H   0  0  0  0  0  0  0  0  0  0  0  0
    6.6055    0.9623   -1.1478 H   0  0  0  0  0  0  0  0  0  0  0  0
    5.1064    0.8309   -2.0863 H   0  0  0  0  0  0  0  0  0  0  0  0
    2.3502   -0.3359    0.9839 H   0  0  0  0  0  0  0  0  0  0  0  0
    2.4086    4.1326   -0.0060 H   0  0  0  0  0  0  0  0  0  0  0  0
    4.1565    4.4236   -0.0129 H   0  0  0  0  0  0  0  0  0  0  0  0
    3.4145    3.5292    1.3174 H   0  0  0  0  0  0  0  0  0  0  0  0
    6.7578    2.5227   -2.9778 H   0  0  0  0  0  0  0  0  0  0  0  0
    6.5898    3.4535   -1.4810 H   0  0  0  0  0  0  0  0  0  0  0  0
    5.2204    3.2843   -2.5865 H   0  0  0  0  0  0  0  0  0  0  0  0
    6.3336   -1.4498   -0.2011 H   0  0  0  0  0  0  0  0  0  0  0  0
    5.4697   -3.5514   -1.1485 H   0  0  0  0  0  0  0  0  0  0  0  0
    3.0603   -4.0670   -1.0550 H   0  0  0  0  0  0  0  0  0  0  0  0
   -1.3935   -2.1327   -0.8094 H   0  0  0  0  0  0  0  0  0  0  0  0
   -1.3348   -2.0588    0.9887 H   0  0  0  0  0  0  0  0  0  0  0  0
   -3.4995   -1.2132    0.1155 H   0  0  0  0  0  0  0  0  0  0  0  0
   -2.5171    2.3680   -0.0528 H   0  0  0  0  0  0  0  0  0  0  0  0
   -7.3695    1.4108    0.1550 H   0  0  0  0  0  0  0  0  0  0  0  0
   -4.1116    4.1635   -0.0749 H   0  0  0  0  0  0  0  0  0  0  0  0
   -6.5456    3.7032    0.0195 H   0  0  0  0  0  0  0  0  0  0  0  0
   -7.3735   -0.3906   -1.2764 H   0  0  0  0  0  0  0  0  0  0  0  0
  1  4  2  0  0  0  0
  1  5  2  0  0  0  0
  1 10  1  0  0  0  0
  1 14  1  0  0  0  0
  2 31  1  0  0  0  0
  3 31  1  0  0  0  0
  6 22  1  0  0  0  0
  6 23  1  0  0  0  0
  7 22  2  0  0  0  0
  8 26  1  0  0  0  0
  8 31  1  0  0  0  0
  9 25  2  0  0  0  0
 10 12  1  0  0  0  0
 10 13  1  0  0  0  0
 11 24  1  0  0  0  0
 11 25  1  0  0  0  0
 11 48  1  0  0  0  0
 12 16  1  0  0  0  0
 12 32  1  0  0  0  0
 12 33  1  0  0  0  0
 13 17  1  0  0  0  0
 13 34  1  0  0  0  0
 13 35  1  0  0  0  0
 14 15  1  0  0  0  0
 14 18  2  0  0  0  0
 15 19  2  0  0  0  0
 15 36  1  0  0  0  0
 16 37  1  0  0  0  0
 16 38  1  0  0  0  0
 16 39  1  0  0  0  0
 17 40  1  0  0  0  0
 17 41  1  0  0  0  0
 17 42  1  0  0  0  0
 18 20  1  0  0  0  0
 18 43  1  0  0  0  0
 19 21  1  0  0  0  0
 19 22  1  0  0  0  0
 20 21  2  0  0  0  0
 20 44  1  0  0  0  0
 21 45  1  0  0  0  0
 23 25  1  0  0  0  0
 23 46  1  0  0  0  0
 23 47  1  0  0  0  0
 24 26  1  0  0  0  0
 24 27  2  0  0  0  0
 26 28  2  0  0  0  0
 27 29  1  0  0  0  0
 27 49  1  0  0  0  0
 28 30  1  0  0  0  0
 28 50  1  0  0  0  0
 29 30  2  0  0  0  0
 29 51  1  0  0  0  0
 30 52  1  0  0  0  0
 31 53  1  0  0  0  0
M  END
> <PUBCHEM_COMPOUND_CID>
2399438

> <PUBCHEM_CONFORMER_RMSD>
1.2

> <PUBCHEM_CONFORMER_DIVERSEORDER>
1
51
103
72
114
106
68
107
67
74
59
5
42
111
105
96
53
40
99
120
91
32
49
109
64
108
62
84
4
20
45
24
60
90
87
63
27
97
79
123
135
9
129
118
75
15
3
21
132
82
50
127
8
37
130
124
76
102
13
57
93
122
56
83
136
94
2
44
71
131
98
14
6
119
88
41
54
33
7
46
29
78
48
116
16
112
22
70
110
43
34
113
12
10
86
69
36
101
17
104
73
23
128
121
117
47
125
66
35
133
55
137
77
100
115
85
61
18
11
126
65
26
25
28
19
30
38
52
89
92
95
134
31
58
81
80
39

> <PUBCHEM_MMFF94_PARTIAL_CHARGES>
38
1 1.45
10 -0.85
11 -0.55
12 0.36
13 0.36
14 -0.01
15 -0.15
18 -0.15
19 0.09
2 -0.34
20 -0.15
21 -0.15
22 0.63
23 0.34
24 0.12
25 0.57
26 0.08
27 -0.15
28 -0.15
29 -0.15
3 -0.34
30 -0.15
31 0.96
36 0.15
4 -0.65
43 0.15
44 0.15
45 0.15
48 0.37
49 0.15
5 -0.65
50 0.15
51 0.15
52 0.15
6 -0.43
7 -0.57
8 -0.36
9 -0.57

> <PUBCHEM_EFFECTIVE_ROTOR_COUNT>
12

> <PUBCHEM_PHARMACOPHORE_FEATURES>
8
1 11 donor
1 4 acceptor
1 5 acceptor
1 7 acceptor
1 8 acceptor
1 9 acceptor
6 14 15 18 19 20 21 rings
6 24 26 27 28 29 30 rings

> <PUBCHEM_HEAVY_ATOM_COUNT>
31

> <PUBCHEM_ATOM_DEF_STEREO_COUNT>
0

> <PUBCHEM_ATOM_UDEF_STEREO_COUNT>
0

> <PUBCHEM_BOND_DEF_STEREO_COUNT>
0

> <PUBCHEM_BOND_UDEF_STEREO_COUNT>
0

> <PUBCHEM_ISOTOPIC_ATOM_COUNT>
0

> <PUBCHEM_COMPONENT_COUNT>
1

> <PUBCHEM_CACTVS_TAUTO_COUNT>
2

> <PUBCHEM_CONFORMER_ID>
00249CCE00000001

> <PUBCHEM_MMFF94_ENERGY>
75.1265

> <PUBCHEM_FEATURE_SELFOVERLAP>
40.618

> <PUBCHEM_SHAPE_FINGERPRINT>
10483366 6 18265071189003208484
11101153 10 18411135849412109157
11273773 38 18262524814172792916
11374522 72 17385726936591207525
11476731 50 17344324882973738735
11828042 279 18116134727552806983
1200032 147 17749404693578237636
1361 2 18335422382694156658
13944108 23 18336272267330517404
15064981 194 18127141775524937129
15183329 4 18409732867621294793
17844677 252 18341336574505045107
21315763 129 18338515223009168715
22149856 69 18201166473152554555
23559900 14 18198895917095173073
245318 6 17896337950497724276
2747138 104 18334306370694138699
335507 130 18343016705576631359
34797466 226 17845934005740082279
4073 2 18260836973371068907
44317340 157 18059570248487534747
4573279 73 18269829981953591823
5109719 28 18410302406075050035
513532 50 18060145310965766444
53794403 172 18334582377771104492
9849439 229 18268142240595595640
99344 41 18411133615312067233

> <PUBCHEM_SHAPE_MULTIPOLES>
582.09
21.61
4.55
1.14
28.91
0.44
0
5
1.67
-3.18
1.01
-2.41
0.65
-1.09

> <PUBCHEM_SHAPE_SELFOVERLAP>
1203.375

> <PUBCHEM_SHAPE_VOLUME>
335.1

> <PUBCHEM_COORDINATE_TYPE>
2
5
10

$$$$
