11834427
  -OEChem-01171811423D

 43 44  0     1  0  0  0  0  0999 V2000
    1.3225   -1.8451   -0.5867 O   0  0  0  0  0  0  0  0  0  0  0  0
    3.9555   -1.4762    0.9262 O   0  0  0  0  0  0  0  0  0  0  0  0
   -0.1830    2.6237    0.0069 O   0  0  0  0  0  0  0  0  0  0  0  0
    4.7802   -1.5749   -1.2294 O   0  0  0  0  0  0  0  0  0  0  0  0
   -1.9321    0.6505   -0.0644 N   0  0  0  0  0  0  0  0  0  0  0  0
   -7.2632   -1.0799    0.1842 N   0  0  0  0  0  0  0  0  0  0  0  0
    3.2053    1.2092    0.1389 C   0  0  0  0  0  0  0  0  0  0  0  0
    2.9628   -0.0867   -0.6788 C   0  0  2  0  0  0  0  0  0  0  0  0
    2.1594    2.2686   -0.2725 C   0  0  0  0  0  0  0  0  0  0  0  0
    3.1401    0.9648    1.6623 C   0  0  0  0  0  0  0  0  0  0  0  0
    4.5996    1.7915   -0.1879 C   0  0  0  0  0  0  0  0  0  0  0  0
    1.5532   -0.6390   -0.5088 C   0  0  0  0  0  0  0  0  0  0  0  0
    0.7234    1.8079   -0.1545 C   0  0  0  0  0  0  0  0  0  0  0  0
    0.4555    0.3502   -0.3030 C   0  0  0  0  0  0  0  0  0  0  0  0
    4.0100   -1.1272   -0.3906 C   0  0  0  0  0  0  0  0  0  0  0  0
   -0.8106   -0.0851   -0.2463 C   0  0  0  0  0  0  0  0  0  0  0  0
    4.9036   -2.4651    1.3400 C   0  0  0  0  0  0  0  0  0  0  0  0
   -3.2687    0.2166   -0.0013 C   0  0  0  0  0  0  0  0  0  0  0  0
   -4.2973    1.1407    0.1956 C   0  0  0  0  0  0  0  0  0  0  0  0
   -3.5725   -1.1400   -0.1360 C   0  0  0  0  0  0  0  0  0  0  0  0
   -5.6227    0.7105    0.2575 C   0  0  0  0  0  0  0  0  0  0  0  0
   -4.8979   -1.5702   -0.0741 C   0  0  0  0  0  0  0  0  0  0  0  0
   -5.9229   -0.6449    0.1226 C   0  0  0  0  0  0  0  0  0  0  0  0
    3.0521    0.1504   -1.7494 H   0  0  0  0  0  0  0  0  0  0  0  0
    2.3088    2.5692   -1.3175 H   0  0  0  0  0  0  0  0  0  0  0  0
    2.2742    3.1678    0.3458 H   0  0  0  0  0  0  0  0  0  0  0  0
    4.0648    0.5386    2.0638 H   0  0  0  0  0  0  0  0  0  0  0  0
    3.0115    1.9170    2.1927 H   0  0  0  0  0  0  0  0  0  0  0  0
    2.3001    0.3279    1.9562 H   0  0  0  0  0  0  0  0  0  0  0  0
    5.4071    1.1208    0.1250 H   0  0  0  0  0  0  0  0  0  0  0  0
    4.7119    1.9691   -1.2635 H   0  0  0  0  0  0  0  0  0  0  0  0
    4.7548    2.7480    0.3247 H   0  0  0  0  0  0  0  0  0  0  0  0
   -0.9852   -1.1470   -0.3560 H   0  0  0  0  0  0  0  0  0  0  0  0
   -1.8066    1.6507    0.0435 H   0  0  0  0  0  0  0  0  0  0  0  0
    4.7537   -2.6539    2.4063 H   0  0  0  0  0  0  0  0  0  0  0  0
    5.9231   -2.0983    1.1881 H   0  0  0  0  0  0  0  0  0  0  0  0
    4.7416   -3.3978    0.7916 H   0  0  0  0  0  0  0  0  0  0  0  0
   -4.0778    2.2001    0.3021 H   0  0  0  0  0  0  0  0  0  0  0  0
   -2.8224   -1.9072   -0.2908 H   0  0  0  0  0  0  0  0  0  0  0  0
   -6.4127    1.4413    0.4111 H   0  0  0  0  0  0  0  0  0  0  0  0
   -5.1201   -2.6290   -0.1808 H   0  0  0  0  0  0  0  0  0  0  0  0
   -7.4814   -2.0626    0.0878 H   0  0  0  0  0  0  0  0  0  0  0  0
   -8.0068   -0.4097    0.3280 H   0  0  0  0  0  0  0  0  0  0  0  0
  1 12  2  0  0  0  0
  2 15  1  0  0  0  0
  2 17  1  0  0  0  0
  3 13  2  0  0  0  0
  4 15  2  0  0  0  0
  5 16  1  0  0  0  0
  5 18  1  0  0  0  0
  5 34  1  0  0  0  0
  6 23  1  0  0  0  0
  6 42  1  0  0  0  0
  6 43  1  0  0  0  0
  7  8  1  0  0  0  0
  7  9  1  0  0  0  0
  7 10  1  0  0  0  0
  7 11  1  0  0  0  0
  8 12  1  0  0  0  0
  8 15  1  0  0  0  0
  8 24  1  0  0  0  0
  9 13  1  0  0  0  0
  9 25  1  0  0  0  0
  9 26  1  0  0  0  0
 10 27  1  0  0  0  0
 10 28  1  0  0  0  0
 10 29  1  0  0  0  0
 11 30  1  0  0  0  0
 11 31  1  0  0  0  0
 11 32  1  0  0  0  0
 12 14  1  0  0  0  0
 13 14  1  0  0  0  0
 14 16  2  0  0  0  0
 16 33  1  0  0  0  0
 17 35  1  0  0  0  0
 17 36  1  0  0  0  0
 17 37  1  0  0  0  0
 18 19  2  0  0  0  0
 18 20  1  0  0  0  0
 19 21  1  0  0  0  0
 19 38  1  0  0  0  0
 20 22  2  0  0  0  0
 20 39  1  0  0  0  0
 21 23  2  0  0  0  0
 21 40  1  0  0  0  0
 22 23  1  0  0  0  0
 22 41  1  0  0  0  0
M  END
> <PUBCHEM_COMPOUND_CID>
11834427

> <PUBCHEM_CONFORMER_RMSD>
0.8

> <PUBCHEM_CONFORMER_DIVERSEORDER>
1
12
9
7
3
5
11
10
4
6
8
2

> <PUBCHEM_MMFF94_PARTIAL_CHARGES>
28
1 -0.57
12 0.49
13 0.49
14 0.03
15 0.66
16 -0.05
17 0.28
18 0.1
19 -0.15
2 -0.43
20 -0.15
21 -0.15
22 -0.15
23 0.1
3 -0.57
33 0.15
34 0.4
38 0.15
39 0.15
4 -0.57
40 0.15
41 0.15
42 0.4
43 0.4
5 -0.6
6 -0.9
8 0.12
9 0.06

> <PUBCHEM_EFFECTIVE_ROTOR_COUNT>
4.6

> <PUBCHEM_PHARMACOPHORE_FEATURES>
12
1 1 acceptor
1 14 anion
1 3 acceptor
1 4 acceptor
1 5 cation
1 5 donor
1 6 cation
1 6 donor
1 8 anion
3 7 10 11 hydrophobe
6 18 19 20 21 22 23 rings
6 7 8 9 12 13 14 rings

> <PUBCHEM_HEAVY_ATOM_COUNT>
23

> <PUBCHEM_ATOM_DEF_STEREO_COUNT>
0

> <PUBCHEM_ATOM_UDEF_STEREO_COUNT>
1

> <PUBCHEM_BOND_DEF_STEREO_COUNT>
1

> <PUBCHEM_BOND_UDEF_STEREO_COUNT>
0

> <PUBCHEM_ISOTOPIC_ATOM_COUNT>
0

> <PUBCHEM_COMPONENT_COUNT>
1

> <PUBCHEM_CACTVS_TAUTO_COUNT>
19

> <PUBCHEM_CONFORMER_ID>
00B4943B00000001

> <PUBCHEM_MMFF94_ENERGY>
83.0918

> <PUBCHEM_FEATURE_SELFOVERLAP>
60.907

> <PUBCHEM_SHAPE_FINGERPRINT>
10411042 1 18339364033886867606
11405975 8 18412827971583538297
12107183 9 18122346770602650217
12166972 35 18334019397658050829
12236239 1 17917999382311361349
12616971 3 17775559845418539799
13073987 5 18410012143832784121
13140716 1 18342446072053402366
13167823 11 18412545440097763031
13533116 47 18409164433004419747
13862211 1 18336264557209540723
14341114 176 18412552032951586149
14790565 3 17761496189815058108
15196674 1 18412547613187755997
15250474 111 18200300139230930711
15475509 35 17896023387541182906
15788980 27 18113621175231192693
17349148 13 18273218599327699393
17844677 252 18409736149202759413
17857418 61 18342174488533664847
1813 80 17458062681506945269
18222031 100 18341618079456830054
1979834 28 17704072876166680750
200 152 18131354133366366977
20028762 73 18272930509717231919
20645477 70 18411703179598935878
21033648 29 16844715427378635067
21267235 1 18342186543837075271
23522609 53 17973758850386671268
23559900 14 18411983571948443113
239999 70 18341618113959129902
3004659 81 18335708225737139950
3411729 13 18200305654311407736
34797466 226 16343712079093613729
3545911 37 18271811267652437773
3680242 22 18408888404072926083
4073 2 18042974357400889995
4214541 1 18412548687414974029
4340502 62 18130219463152357816
465052 167 18412265004455964206
5104073 3 18342460348455688025
542803 24 16630815413414765113
8863177 126 18042139802706927451
960060 61 17675931997045096550
9709674 26 18264212594316771611
9971528 1 17967816063147327349

> <PUBCHEM_SHAPE_MULTIPOLES>
439.89
14.76
2.45
0.96
20.16
0.12
-0.23
-5.97
-1.74
-2.7
-0.21
-1.25
-0.24
-0.4

> <PUBCHEM_SHAPE_SELFOVERLAP>
932.46

> <PUBCHEM_SHAPE_VOLUME>
243.5

> <PUBCHEM_COORDINATE_TYPE>
2
5
10

$$$$
