1428021
  -OEChem-01171812003D

 55 56  0     0  0  0  0  0  0999 V2000
    1.7305    3.0454   -1.0017 S   0  0  0  0  0  0  0  0  0  0  0  0
   -2.9711    2.6105    0.7182 O   0  0  0  0  0  0  0  0  0  0  0  0
    0.0976   -1.8459   -0.3527 O   0  0  0  0  0  0  0  0  0  0  0  0
   -4.5646   -2.1062   -0.3613 O   0  0  0  0  0  0  0  0  0  0  0  0
   -4.2378    0.1581    0.1572 N   0  0  0  0  0  0  0  0  0  0  0  0
    1.3459    0.6055    0.2072 N   0  0  0  0  0  0  0  0  0  0  0  0
    3.5573    1.4296   -0.0468 N   0  0  0  0  0  0  0  0  0  0  0  0
   -6.4921   -0.6956   -0.0185 C   0  0  0  0  0  0  0  0  0  0  0  0
   -2.8277    0.2790    0.1706 C   0  0  0  0  0  0  0  0  0  0  0  0
   -0.0456    0.4866    0.1913 C   0  0  0  0  0  0  0  0  0  0  0  0
   -4.9900   -0.9842   -0.1017 C   0  0  0  0  0  0  0  0  0  0  0  0
   -2.2217    1.5038    0.4509 C   0  0  0  0  0  0  0  0  0  0  0  0
    5.2415   -0.3260   -0.3009 C   0  0  0  0  0  0  0  0  0  0  0  0
   -0.6518   -0.7381   -0.0892 C   0  0  0  0  0  0  0  0  0  0  0  0
   -2.0428   -0.8417   -0.0995 C   0  0  0  0  0  0  0  0  0  0  0  0
   -0.8306    1.6076    0.4615 C   0  0  0  0  0  0  0  0  0  0  0  0
    4.2825    0.3280    0.4726 C   0  0  0  0  0  0  0  0  0  0  0  0
   -7.2797   -1.5870   -0.9767 C   0  0  0  0  0  0  0  0  0  0  0  0
   -6.9848   -0.8893    1.4144 C   0  0  0  0  0  0  0  0  0  0  0  0
    5.5365    0.1109   -1.6993 C   0  0  0  0  0  0  0  0  0  0  0  0
    5.9446   -1.4083    0.2283 C   0  0  0  0  0  0  0  0  0  0  0  0
    2.1951    1.6355   -0.2037 C   0  0  0  0  0  0  0  0  0  0  0  0
    4.0267   -0.1002    1.7753 C   0  0  0  0  0  0  0  0  0  0  0  0
    4.6593   -0.6011   -2.7241 C   0  0  0  0  0  0  0  0  0  0  0  0
    5.6888   -1.8364    1.5311 C   0  0  0  0  0  0  0  0  0  0  0  0
    4.7299   -1.1824    2.3044 C   0  0  0  0  0  0  0  0  0  0  0  0
   -3.3401    3.4258   -0.3918 C   0  0  0  0  0  0  0  0  0  0  0  0
    0.4439   -2.0839   -1.7152 C   0  0  0  0  0  0  0  0  0  0  0  0
   -6.6695    0.3461   -0.3143 H   0  0  0  0  0  0  0  0  0  0  0  0
   -4.7409    1.0158    0.3727 H   0  0  0  0  0  0  0  0  0  0  0  0
   -2.4394   -1.8216   -0.3232 H   0  0  0  0  0  0  0  0  0  0  0  0
   -0.3972    2.5584    0.7545 H   0  0  0  0  0  0  0  0  0  0  0  0
   -7.1847   -2.6456   -0.7109 H   0  0  0  0  0  0  0  0  0  0  0  0
   -6.9144   -1.4696   -2.0026 H   0  0  0  0  0  0  0  0  0  0  0  0
   -8.3436   -1.3285   -0.9636 H   0  0  0  0  0  0  0  0  0  0  0  0
   -6.8216   -1.9183    1.7538 H   0  0  0  0  0  0  0  0  0  0  0  0
   -8.0537   -0.6665    1.4949 H   0  0  0  0  0  0  0  0  0  0  0  0
   -6.4483   -0.2283    2.1036 H   0  0  0  0  0  0  0  0  0  0  0  0
    5.4514    1.1953   -1.8204 H   0  0  0  0  0  0  0  0  0  0  0  0
    6.5880   -0.1059   -1.9311 H   0  0  0  0  0  0  0  0  0  0  0  0
    1.8155   -0.2896    0.3211 H   0  0  0  0  0  0  0  0  0  0  0  0
    4.1167    2.0762   -0.5968 H   0  0  0  0  0  0  0  0  0  0  0  0
    6.6931   -1.9295   -0.3628 H   0  0  0  0  0  0  0  0  0  0  0  0
    3.2895    0.4037    2.3953 H   0  0  0  0  0  0  0  0  0  0  0  0
    4.7903   -1.6873   -2.6739 H   0  0  0  0  0  0  0  0  0  0  0  0
    4.9197   -0.2745   -3.7359 H   0  0  0  0  0  0  0  0  0  0  0  0
    3.5989   -0.3824   -2.5595 H   0  0  0  0  0  0  0  0  0  0  0  0
    6.2361   -2.6792    1.9432 H   0  0  0  0  0  0  0  0  0  0  0  0
    4.5322   -1.5147    3.3193 H   0  0  0  0  0  0  0  0  0  0  0  0
   -2.4496    3.8542   -0.8628 H   0  0  0  0  0  0  0  0  0  0  0  0
   -3.9119    2.8501   -1.1263 H   0  0  0  0  0  0  0  0  0  0  0  0
   -3.9673    4.2423   -0.0235 H   0  0  0  0  0  0  0  0  0  0  0  0
   -0.4563   -2.2563   -2.3137 H   0  0  0  0  0  0  0  0  0  0  0  0
    1.0112   -1.2424   -2.1250 H   0  0  0  0  0  0  0  0  0  0  0  0
    1.0695   -2.9797   -1.7581 H   0  0  0  0  0  0  0  0  0  0  0  0
  1 22  2  0  0  0  0
  2 12  1  0  0  0  0
  2 27  1  0  0  0  0
  3 14  1  0  0  0  0
  3 28  1  0  0  0  0
  4 11  2  0  0  0  0
  5  9  1  0  0  0  0
  5 11  1  0  0  0  0
  5 30  1  0  0  0  0
  6 10  1  0  0  0  0
  6 22  1  0  0  0  0
  6 41  1  0  0  0  0
  7 17  1  0  0  0  0
  7 22  1  0  0  0  0
  7 42  1  0  0  0  0
  8 11  1  0  0  0  0
  8 18  1  0  0  0  0
  8 19  1  0  0  0  0
  8 29  1  0  0  0  0
  9 12  1  0  0  0  0
  9 15  2  0  0  0  0
 10 14  2  0  0  0  0
 10 16  1  0  0  0  0
 12 16  2  0  0  0  0
 13 17  1  0  0  0  0
 13 20  1  0  0  0  0
 13 21  2  0  0  0  0
 14 15  1  0  0  0  0
 15 31  1  0  0  0  0
 16 32  1  0  0  0  0
 17 23  2  0  0  0  0
 18 33  1  0  0  0  0
 18 34  1  0  0  0  0
 18 35  1  0  0  0  0
 19 36  1  0  0  0  0
 19 37  1  0  0  0  0
 19 38  1  0  0  0  0
 20 24  1  0  0  0  0
 20 39  1  0  0  0  0
 20 40  1  0  0  0  0
 21 25  1  0  0  0  0
 21 43  1  0  0  0  0
 23 26  1  0  0  0  0
 23 44  1  0  0  0  0
 24 45  1  0  0  0  0
 24 46  1  0  0  0  0
 24 47  1  0  0  0  0
 25 26  2  0  0  0  0
 25 48  1  0  0  0  0
 26 49  1  0  0  0  0
 27 50  1  0  0  0  0
 27 51  1  0  0  0  0
 27 52  1  0  0  0  0
 28 53  1  0  0  0  0
 28 54  1  0  0  0  0
 28 55  1  0  0  0  0
M  END
> <PUBCHEM_COMPOUND_CID>
1428021

> <PUBCHEM_CONFORMER_RMSD>
1

> <PUBCHEM_CONFORMER_DIVERSEORDER>
1
12
17
24
28
65
40
18
60
66
32
52
41
48
23
42
30
26
44
21
13
20
53
6
49
56
5
33
64
29
50
27
11
15
47
59
22
14
58
8
37
67
63
38
16
55
54
34
9
46
43
45
19
35
62
7
3
57
61
39
36
51
10
31
2
4
25

> <PUBCHEM_MMFF94_PARTIAL_CHARGES>
34
1 -0.38
10 0.12
11 0.57
12 0.08
13 -0.14
14 0.08
15 -0.15
16 -0.15
17 0.12
2 -0.36
20 0.14
21 -0.15
22 0.5
23 -0.15
25 -0.15
26 -0.15
27 0.28
28 0.28
3 -0.36
30 0.37
31 0.15
32 0.15
4 -0.57
41 0.37
42 0.37
43 0.15
44 0.15
48 0.15
49 0.15
5 -0.55
6 -0.55
7 -0.55
8 0.06
9 0.12

> <PUBCHEM_EFFECTIVE_ROTOR_COUNT>
10

> <PUBCHEM_PHARMACOPHORE_FEATURES>
11
1 1 acceptor
1 2 acceptor
1 24 hydrophobe
1 3 acceptor
1 4 acceptor
1 5 donor
1 6 donor
1 7 donor
3 8 18 19 hydrophobe
6 13 17 21 23 25 26 rings
6 9 10 12 14 15 16 rings

> <PUBCHEM_HEAVY_ATOM_COUNT>
28

> <PUBCHEM_ATOM_DEF_STEREO_COUNT>
0

> <PUBCHEM_ATOM_UDEF_STEREO_COUNT>
0

> <PUBCHEM_BOND_DEF_STEREO_COUNT>
0

> <PUBCHEM_BOND_UDEF_STEREO_COUNT>
0

> <PUBCHEM_ISOTOPIC_ATOM_COUNT>
0

> <PUBCHEM_COMPONENT_COUNT>
1

> <PUBCHEM_CACTVS_TAUTO_COUNT>
6

> <PUBCHEM_CONFORMER_ID>
0015CA3500000001

> <PUBCHEM_MMFF94_ENERGY>
126.7423

> <PUBCHEM_FEATURE_SELFOVERLAP>
55.858

> <PUBCHEM_SHAPE_FINGERPRINT>
10 15 12679463105838702735
11578080 2 17243002459321194503
11719270 70 18202280316833457039
12166972 35 17894631478528939445
12236239 1 18186519878426568944
12403259 415 17632574938063719536
12403260 363 18409450293201300733
12422481 6 17274546528572350231
13073987 5 18335977602213367264
13533116 47 18334855069170494536
13782708 43 17846495963439974391
13862211 1 18341890827339524571
14294032 229 18194132824271992745
14347332 77 18408318874313950965
144659 39 14405178504059922004
15183329 4 18408886261010676679
17349148 13 18413108363912030980
18222031 100 18335138700357814200
20028762 73 18201999958115720327
21033648 29 17418087681631970320
21150785 3 15430039885153373371
21267235 1 18410015425050258466
21781051 124 18264505021096642371
22956985 138 17978511936586352774
23522609 53 18044124317499143365
23559900 14 17968938729144197609
3004659 81 18339929310831751245
3411729 13 18127966624210243048
350125 39 18412546500849404425
3633792 109 16588020199604118951
397830 11 13973395941752774007
4340502 62 13973691654187413893
465052 167 18333733537150199474
5104073 3 18343297059361429568
59755656 215 18272374148559335071
86090 222 17059517165922255326
960060 61 17385726898532209796

> <PUBCHEM_SHAPE_MULTIPOLES>
547.53
17.77
2.88
1.72
13.2
2.33
0.37
-10.34
-1.03
1.41
0.31
-2.91
-0.74
-1.6

> <PUBCHEM_SHAPE_SELFOVERLAP>
1127.358

> <PUBCHEM_SHAPE_VOLUME>
317.6

> <PUBCHEM_COORDINATE_TYPE>
2
5
10

$$$$
