24791781
  -OEChem-01171812063D

 49 51  0     1  0  0  0  0  0999 V2000
   -0.0015   -0.2892   -0.8749 O   0  0  0  0  0  0  0  0  0  0  0  0
   -2.8650    0.4488   -0.3273 O   0  0  0  0  0  0  0  0  0  0  0  0
    2.8594    1.8990    1.8263 O   0  0  0  0  0  0  0  0  0  0  0  0
   -8.8154   -1.6844    0.2908 O   0  0  0  0  0  0  0  0  0  0  0  0
    3.7460    1.3074   -0.2330 N   0  0  0  0  0  0  0  0  0  0  0  0
    5.3437   -1.2277   -1.1604 N   0  0  0  0  0  0  0  0  0  0  0  0
    1.3070    0.1778   -0.8522 N   0  0  0  0  0  0  0  0  0  0  0  0
    5.0691    1.8430   -0.0059 C   0  0  1  0  0  0  0  0  0  0  0  0
    6.1323    1.0459   -0.7776 C   0  0  0  0  0  0  0  0  0  0  0  0
    5.1034    3.3150   -0.4050 C   0  0  0  0  0  0  0  0  0  0  0  0
    6.1410   -0.4222   -0.4233 C   0  0  0  0  0  0  0  0  0  0  0  0
    2.7408    1.3833    0.7179 C   0  0  0  0  0  0  0  0  0  0  0  0
    1.4450    0.7618    0.3415 C   0  0  0  0  0  0  0  0  0  0  0  0
    6.9445   -0.8658    0.6147 C   0  0  0  0  0  0  0  0  0  0  0  0
    0.2683    0.6948    1.1075 C   0  0  0  0  0  0  0  0  0  0  0  0
   -0.6098    0.0247    0.2975 C   0  0  0  0  0  0  0  0  0  0  0  0
   -2.0082   -0.3972    0.4446 C   0  0  0  0  0  0  0  0  0  0  0  0
    6.9287   -2.2232    0.9157 C   0  0  0  0  0  0  0  0  0  0  0  0
    5.3547   -2.5408   -0.8388 C   0  0  0  0  0  0  0  0  0  0  0  0
    6.1214   -3.0835    0.1798 C   0  0  0  0  0  0  0  0  0  0  0  0
   -4.2067    0.2078   -0.2310 C   0  0  0  0  0  0  0  0  0  0  0  0
   -6.9460   -0.2836   -0.0359 C   0  0  0  0  0  0  0  0  0  0  0  0
   -5.1088    0.9894   -0.9528 C   0  0  0  0  0  0  0  0  0  0  0  0
   -4.6743   -0.8196    0.5885 C   0  0  0  0  0  0  0  0  0  0  0  0
   -6.4784    0.7437   -0.8554 C   0  0  0  0  0  0  0  0  0  0  0  0
   -6.0440   -1.0651    0.6861 C   0  0  0  0  0  0  0  0  0  0  0  0
   -8.3740   -0.5398    0.0658 C   0  0  0  0  0  0  0  0  0  0  0  0
   -9.3733    0.5996   -0.1032 C   0  0  0  0  0  0  0  0  0  0  0  0
    5.2827    1.7742    1.0684 H   0  0  0  0  0  0  0  0  0  0  0  0
    7.1281    1.4719   -0.6007 H   0  0  0  0  0  0  0  0  0  0  0  0
    5.9526    1.1344   -1.8577 H   0  0  0  0  0  0  0  0  0  0  0  0
    4.8666    3.4441   -1.4671 H   0  0  0  0  0  0  0  0  0  0  0  0
    6.0925    3.7469   -0.2206 H   0  0  0  0  0  0  0  0  0  0  0  0
    4.3713    3.8949    0.1676 H   0  0  0  0  0  0  0  0  0  0  0  0
    3.5387    0.8980   -1.1397 H   0  0  0  0  0  0  0  0  0  0  0  0
    7.5692   -0.1861    1.1843 H   0  0  0  0  0  0  0  0  0  0  0  0
    0.0817    1.0758    2.1008 H   0  0  0  0  0  0  0  0  0  0  0  0
   -2.0947   -1.4368    0.1036 H   0  0  0  0  0  0  0  0  0  0  0  0
   -2.2637   -0.3270    1.5099 H   0  0  0  0  0  0  0  0  0  0  0  0
    7.5439   -2.6099    1.7227 H   0  0  0  0  0  0  0  0  0  0  0  0
    4.7075   -3.1689   -1.4420 H   0  0  0  0  0  0  0  0  0  0  0  0
    6.0928   -4.1450    0.3970 H   0  0  0  0  0  0  0  0  0  0  0  0
   -4.7497    1.7892   -1.5949 H   0  0  0  0  0  0  0  0  0  0  0  0
   -4.0352   -1.4711    1.1741 H   0  0  0  0  0  0  0  0  0  0  0  0
   -7.1574    1.3596   -1.4386 H   0  0  0  0  0  0  0  0  0  0  0  0
   -6.3911   -1.8681    1.3315 H   0  0  0  0  0  0  0  0  0  0  0  0
   -9.6445    0.6948   -1.1573 H   0  0  0  0  0  0  0  0  0  0  0  0
   -8.9573    1.5395    0.2694 H   0  0  0  0  0  0  0  0  0  0  0  0
  -10.2682    0.3796    0.4868 H   0  0  0  0  0  0  0  0  0  0  0  0
  1  7  1  0  0  0  0
  1 16  1  0  0  0  0
  2 17  1  0  0  0  0
  2 21  1  0  0  0  0
  3 12  2  0  0  0  0
  4 27  2  0  0  0  0
  5  8  1  0  0  0  0
  5 12  1  0  0  0  0
  5 35  1  0  0  0  0
  6 11  1  0  0  0  0
  6 19  2  0  0  0  0
  7 13  2  0  0  0  0
  8  9  1  0  0  0  0
  8 10  1  0  0  0  0
  8 29  1  0  0  0  0
  9 11  1  0  0  0  0
  9 30  1  0  0  0  0
  9 31  1  0  0  0  0
 10 32  1  0  0  0  0
 10 33  1  0  0  0  0
 10 34  1  0  0  0  0
 11 14  2  0  0  0  0
 12 13  1  0  0  0  0
 13 15  1  0  0  0  0
 14 18  1  0  0  0  0
 14 36  1  0  0  0  0
 15 16  2  0  0  0  0
 15 37  1  0  0  0  0
 16 17  1  0  0  0  0
 17 38  1  0  0  0  0
 17 39  1  0  0  0  0
 18 20  2  0  0  0  0
 18 40  1  0  0  0  0
 19 20  1  0  0  0  0
 19 41  1  0  0  0  0
 20 42  1  0  0  0  0
 21 23  2  0  0  0  0
 21 24  1  0  0  0  0
 22 25  2  0  0  0  0
 22 26  1  0  0  0  0
 22 27  1  0  0  0  0
 23 25  1  0  0  0  0
 23 43  1  0  0  0  0
 24 26  2  0  0  0  0
 24 44  1  0  0  0  0
 25 45  1  0  0  0  0
 26 46  1  0  0  0  0
 27 28  1  0  0  0  0
 28 47  1  0  0  0  0
 28 48  1  0  0  0  0
 28 49  1  0  0  0  0
M  END
> <PUBCHEM_COMPOUND_CID>
24791781

> <PUBCHEM_CONFORMER_RMSD>
1.2

> <PUBCHEM_CONFORMER_DIVERSEORDER>
1
144
128
110
215
167
84
16
98
93
18
88
213
140
151
114
169
162
87
102
50
172
126
211
210
89
26
10
166
29
116
24
109
231
192
112
37
43
160
70
105
186
199
235
100
80
180
148
32
132
63
158
74
61
130
225
52
152
38
197
7
171
69
224
185
30
108
155
31
97
21
194
91
73
119
96
86
149
208
173
22
120
9
127
34
209
44
183
113
85
20
202
76
153
75
218
107
175
226
15
165
101
145
17
81
134
62
106
168
234
190
79
48
8
221
111
191
228
28
123
12
139
216
181
103
5
212
203
104
164
117
59
138
64
36
47
146
2
207
157
214
236
137
14
67
227
82
179
33
78
42
60
233
206
201
115
229
71
176
131
121
150
92
222
11
55
141
4
163
23
204
182
118
40
188
154
170
232
46
161
95
90
3
25
143
133
39
41
196
135
184
66
205
57
83
193
195
136
56
177
45
156
51
129
187
72
6
219
53
220
122
94
19
125
223
198
142
147
159
54
217
13
58
77
178
65
68
27
124
230
35
200
99
49
189
174

> <PUBCHEM_MMFF94_PARTIAL_CHARGES>
37
1 -0.02
11 0.17
12 0.72
13 0.2
14 -0.15
15 -0.15
16 -0.04
17 0.46
18 -0.15
19 0.16
2 -0.36
20 -0.15
21 0.08
22 0.09
23 -0.15
24 -0.15
25 -0.15
26 -0.15
27 0.42
28 0.06
3 -0.57
35 0.37
36 0.15
37 0.15
4 -0.57
40 0.15
41 0.15
42 0.15
43 0.15
44 0.15
45 0.15
46 0.15
5 -0.73
6 -0.62
7 -0.41
8 0.3
9 0.14

> <PUBCHEM_EFFECTIVE_ROTOR_COUNT>
9

> <PUBCHEM_PHARMACOPHORE_FEATURES>
9
1 2 acceptor
1 3 acceptor
1 4 acceptor
1 5 donor
1 6 acceptor
1 7 acceptor
5 1 7 13 15 16 rings
6 21 22 23 24 25 26 rings
6 6 11 14 18 19 20 rings

> <PUBCHEM_HEAVY_ATOM_COUNT>
28

> <PUBCHEM_ATOM_DEF_STEREO_COUNT>
0

> <PUBCHEM_ATOM_UDEF_STEREO_COUNT>
1

> <PUBCHEM_BOND_DEF_STEREO_COUNT>
0

> <PUBCHEM_BOND_UDEF_STEREO_COUNT>
0

> <PUBCHEM_ISOTOPIC_ATOM_COUNT>
0

> <PUBCHEM_COMPONENT_COUNT>
1

> <PUBCHEM_CACTVS_TAUTO_COUNT>
8

> <PUBCHEM_CONFORMER_ID>
017A4AE500000001

> <PUBCHEM_MMFF94_ENERGY>
64.6406

> <PUBCHEM_FEATURE_SELFOVERLAP>
45.674

> <PUBCHEM_SHAPE_FINGERPRINT>
10066227 49 18410011001108031387
11135609 127 18042692883263625428
11315181 36 8646773305766695511
11607047 191 17343768573509704016
11719270 70 17561085791136627062
13008946 282 16773218704525203216
13533116 47 18343865520321737216
13617811 41 15719111340666833246
14347332 77 18341895143571167296
14537116 161 13479138969588844782
14933364 13 18260547848883523789
15183329 4 17918280856734385564
15301273 46 17967531277267458111
15336146 87 13912593983422849895
15352257 5 18335703857624011595
15475509 8 16805608036351069756
15510794 2 18040437724056858019
19301679 30 17702670922096259750
19841028 212 18264767667649033770
21315759 40 18131073766380539833
21360442 33 18260264106480904186
23559900 14 18335137622078267569
27425 322 16298960887102700986
3014965 18 18411698773157655868
3044373 193 18261397779930113732
34797466 226 17240485840440443428
4073 2 18116437123094059394
4098825 35 18340207397875902249
4197921 191 18412550920265679232
439807 62 18411983546326501392
4625314 4 18333729157312030365
57359948 33 17530970198723837972
59682541 52 18333736823417372160
6081469 158 18409164399246464229
6438161 24 18335697222537576786
6441014 3 17188414868436987430
9831232 110 18335417911934460222

> <PUBCHEM_SHAPE_MULTIPOLES>
537.81
29.48
2.58
1.06
41.5
0.15
0.11
10
-1.63
-7.25
0.02
-0.71
-0.1
0.76

> <PUBCHEM_SHAPE_SELFOVERLAP>
1145.726

> <PUBCHEM_SHAPE_VOLUME>
298.3

> <PUBCHEM_COORDINATE_TYPE>
2
5
10

$$$$
