2886484
  -OEChem-01171811443D

 42 42  0     1  0  0  0  0  0999 V2000
    7.7431   -0.2102   -0.2657 Cl  0  0  0  0  0  0  0  0  0  0  0  0
   -2.8736    0.3255   -0.7340 P   0  0  0  0  0  0  0  0  0  0  0  0
   -3.0778    1.6229    0.2166 O   0  0  0  0  0  0  0  0  0  0  0  0
   -4.2660   -0.4713   -0.5173 O   0  0  0  0  0  0  0  0  0  0  0  0
   -2.5627    0.6602   -2.1652 O   0  0  0  0  0  0  0  0  0  0  0  0
   -1.6397   -0.2679    2.4950 O   0  0  0  0  0  0  0  0  0  0  0  0
    1.0593   -1.6780   -0.0312 O   0  0  0  0  0  0  0  0  0  0  0  0
   -0.3875    0.1232    0.0610 N   0  0  0  0  0  0  0  0  0  0  0  0
    1.8693    0.5254   -0.0220 N   0  0  0  0  0  0  0  0  0  0  0  0
   -2.5768   -2.1946    1.6677 N   0  0  0  0  0  0  0  0  0  0  0  0
   -1.6199   -0.6439    0.0964 C   0  0  1  0  0  0  0  0  0  0  0  0
   -1.9227   -0.9878    1.5414 C   0  0  0  0  0  0  0  0  0  0  0  0
   -4.0195    2.6130   -0.1578 C   0  0  0  0  0  0  0  0  0  0  0  0
   -4.5806   -1.5891   -1.3276 C   0  0  0  0  0  0  0  0  0  0  0  0
    0.8814   -0.4627   -0.0003 C   0  0  0  0  0  0  0  0  0  0  0  0
   -4.0219    3.7106    0.8848 C   0  0  0  0  0  0  0  0  0  0  0  0
   -5.9295   -2.1357   -0.9114 C   0  0  0  0  0  0  0  0  0  0  0  0
    3.2713    0.3498   -0.0811 C   0  0  0  0  0  0  0  0  0  0  0  0
    4.1135    1.4617   -0.0947 C   0  0  0  0  0  0  0  0  0  0  0  0
    3.8120   -0.9352   -0.1248 C   0  0  0  0  0  0  0  0  0  0  0  0
    5.4963    1.2887   -0.1521 C   0  0  0  0  0  0  0  0  0  0  0  0
    5.1949   -1.1083   -0.1821 C   0  0  0  0  0  0  0  0  0  0  0  0
    6.0370    0.0036   -0.1959 C   0  0  0  0  0  0  0  0  0  0  0  0
   -1.4572   -1.5694   -0.4674 H   0  0  0  0  0  0  0  0  0  0  0  0
   -0.4508    1.1341    0.1320 H   0  0  0  0  0  0  0  0  0  0  0  0
   -3.7441    3.0209   -1.1352 H   0  0  0  0  0  0  0  0  0  0  0  0
   -5.0126    2.1593   -0.2318 H   0  0  0  0  0  0  0  0  0  0  0  0
   -4.6100   -1.2745   -2.3754 H   0  0  0  0  0  0  0  0  0  0  0  0
   -3.8068   -2.3535   -1.2138 H   0  0  0  0  0  0  0  0  0  0  0  0
    1.5503    1.4905    0.0075 H   0  0  0  0  0  0  0  0  0  0  0  0
   -4.2799    3.3064    1.8692 H   0  0  0  0  0  0  0  0  0  0  0  0
   -3.0267    4.1581    0.9757 H   0  0  0  0  0  0  0  0  0  0  0  0
   -4.7393    4.4942    0.6257 H   0  0  0  0  0  0  0  0  0  0  0  0
   -5.9141   -2.4374    0.1412 H   0  0  0  0  0  0  0  0  0  0  0  0
   -6.7042   -1.3684   -1.0112 H   0  0  0  0  0  0  0  0  0  0  0  0
   -6.2065   -2.9994   -1.5222 H   0  0  0  0  0  0  0  0  0  0  0  0
   -2.8479   -2.5454    2.5804 H   0  0  0  0  0  0  0  0  0  0  0  0
   -2.8094   -2.7781    0.8710 H   0  0  0  0  0  0  0  0  0  0  0  0
    3.7050    2.4685   -0.0608 H   0  0  0  0  0  0  0  0  0  0  0  0
    3.2263   -1.8434   -0.1171 H   0  0  0  0  0  0  0  0  0  0  0  0
    6.1405    2.1642   -0.1619 H   0  0  0  0  0  0  0  0  0  0  0  0
    5.6036   -2.1152   -0.2155 H   0  0  0  0  0  0  0  0  0  0  0  0
  1 23  1  0  0  0  0
  2  3  1  0  0  0  0
  2  4  1  0  0  0  0
  2  5  2  0  0  0  0
  2 11  1  0  0  0  0
  3 13  1  0  0  0  0
  4 14  1  0  0  0  0
  6 12  2  0  0  0  0
  7 15  2  0  0  0  0
  8 11  1  0  0  0  0
  8 15  1  0  0  0  0
  8 25  1  0  0  0  0
  9 15  1  0  0  0  0
  9 18  1  0  0  0  0
  9 30  1  0  0  0  0
 10 12  1  0  0  0  0
 10 37  1  0  0  0  0
 10 38  1  0  0  0  0
 11 12  1  0  0  0  0
 11 24  1  0  0  0  0
 13 16  1  0  0  0  0
 13 26  1  0  0  0  0
 13 27  1  0  0  0  0
 14 17  1  0  0  0  0
 14 28  1  0  0  0  0
 14 29  1  0  0  0  0
 16 31  1  0  0  0  0
 16 32  1  0  0  0  0
 16 33  1  0  0  0  0
 17 34  1  0  0  0  0
 17 35  1  0  0  0  0
 17 36  1  0  0  0  0
 18 19  2  0  0  0  0
 18 20  1  0  0  0  0
 19 21  1  0  0  0  0
 19 39  1  0  0  0  0
 20 22  2  0  0  0  0
 20 40  1  0  0  0  0
 21 23  2  0  0  0  0
 21 41  1  0  0  0  0
 22 23  1  0  0  0  0
 22 42  1  0  0  0  0
M  END
> <PUBCHEM_COMPOUND_CID>
2886484

> <PUBCHEM_CONFORMER_RMSD>
1

> <PUBCHEM_CONFORMER_DIVERSEORDER>
1
74
8
59
65
29
53
71
84
105
110
36
83
91
80
79
104
11
78
100
93
107
101
42
67
94
5
96
97
51
47
57
88
61
60
52
70
28
89
38
15
63
43
33
34
106
44
112
99
64
45
111
109
24
68
95
55
75
22
50
98
86
17
90
2
76
16
40
72
108
54
81
31
49
4
102
73
26
103
58
19
87
46
32
85
25
10
62
30
69
37
7
27
56
20
41
12
92
21
6
77
66
23
3
48
82
18
14
35
39
9
13

> <PUBCHEM_MMFF94_PARTIAL_CHARGES>
29
1 -0.18
10 -0.8
11 0.36
12 0.57
13 0.28
14 0.28
15 0.69
18 0.12
19 -0.15
2 1.24
20 -0.15
21 -0.15
22 -0.15
23 0.18
25 0.37
3 -0.55
30 0.37
37 0.37
38 0.37
39 0.15
4 -0.55
40 0.15
41 0.15
42 0.15
5 -0.7
6 -0.57
7 -0.57
8 -0.73
9 -0.55

> <PUBCHEM_EFFECTIVE_ROTOR_COUNT>
10

> <PUBCHEM_PHARMACOPHORE_FEATURES>
7
1 10 donor
1 5 acceptor
1 6 acceptor
1 7 acceptor
1 8 donor
1 9 donor
6 18 19 20 21 22 23 rings

> <PUBCHEM_HEAVY_ATOM_COUNT>
23

> <PUBCHEM_ATOM_DEF_STEREO_COUNT>
0

> <PUBCHEM_ATOM_UDEF_STEREO_COUNT>
1

> <PUBCHEM_BOND_DEF_STEREO_COUNT>
0

> <PUBCHEM_BOND_UDEF_STEREO_COUNT>
0

> <PUBCHEM_ISOTOPIC_ATOM_COUNT>
0

> <PUBCHEM_COMPONENT_COUNT>
1

> <PUBCHEM_CACTVS_TAUTO_COUNT>
6

> <PUBCHEM_CONFORMER_ID>
002C0B5400000001

> <PUBCHEM_MMFF94_ENERGY>
41.0005

> <PUBCHEM_FEATURE_SELFOVERLAP>
35.575

> <PUBCHEM_SHAPE_FINGERPRINT>
10291535 26 18341056224419831097
10595046 47 18412260649226828532
11089746 13 18334293167768952136
11315181 36 17749676276633192406
11405975 8 18040438789577966912
12107183 9 17907011773177746130
12166972 35 18201718505051403400
12236239 1 17489592281498115446
12633257 1 17240492402818162348
12788726 201 18410564103270934731
13073987 5 18413383225008377382
13668630 136 17917997196168077926
14251764 38 18335988652926998876
14713325 29 18202002093415416909
15183329 4 17676201360894657458
15778101 99 18272090435846991373
17844677 252 18342742944408702556
19489759 90 17894346700548018478
200 152 18059574723753864331
20645477 70 18412261710611784606
21033648 29 18343012312078289112
21150785 3 18335419114931056422
21236236 1 18409730651559971189
21315763 129 18342455950435933308
23081809 10 18260831475986509278
23198884 109 18334012787207087721
23559900 14 17677891416881219100
4325135 7 18343017822009698391
497634 4 18408316679633025717
5104073 3 17967813873558083840
531348 171 18201158754447606646
59755656 520 17749391430233768299
90127 26 18411428314998945152

> <PUBCHEM_SHAPE_MULTIPOLES>
434.76
16.73
2.66
1.38
21.67
2.25
0.47
-0.58
-3.86
-5.57
0.39
-2.04
-0.38
-0.78

> <PUBCHEM_SHAPE_SELFOVERLAP>
851.361

> <PUBCHEM_SHAPE_VOLUME>
261.6

> <PUBCHEM_COORDINATE_TYPE>
2
5
10

$$$$
