891188
  -OEChem-01171811553D

 39 41  0     0  0  0  0  0  0999 V2000
    0.1512   -3.2578    1.1329 S   0  0  0  0  0  0  0  0  0  0  0  0
    4.3255   -0.9703    0.2766 O   0  0  0  0  0  0  0  0  0  0  0  0
    1.4942    0.8116   -0.7319 O   0  0  0  0  0  0  0  0  0  0  0  0
   -2.2214    1.4515    0.1630 N   0  0  0  0  0  0  0  0  0  0  0  0
   -0.6195   -0.8960   -0.1065 N   0  0  0  0  0  0  0  0  0  0  0  0
    1.6839   -1.2914    0.2844 N   0  0  0  0  0  0  0  0  0  0  0  0
   -1.8477    3.7715    0.0739 C   0  0  0  0  0  0  0  0  0  0  0  0
   -0.7774    3.1354    0.9436 C   0  0  0  0  0  0  0  0  0  0  0  0
   -2.3838    2.5924   -0.7348 C   0  0  0  0  0  0  0  0  0  0  0  0
   -1.3890    1.7867    1.3158 C   0  0  0  0  0  0  0  0  0  0  0  0
   -2.7850    0.2120   -0.0507 C   0  0  0  0  0  0  0  0  0  0  0  0
   -2.0123   -0.9779   -0.1903 C   0  0  0  0  0  0  0  0  0  0  0  0
   -4.1970    0.0527   -0.1464 C   0  0  0  0  0  0  0  0  0  0  0  0
   -2.6038   -2.2223   -0.4076 C   0  0  0  0  0  0  0  0  0  0  0  0
   -4.7885   -1.1918   -0.3638 C   0  0  0  0  0  0  0  0  0  0  0  0
   -3.9919   -2.3293   -0.4945 C   0  0  0  0  0  0  0  0  0  0  0  0
    0.3609   -1.7660    0.3933 C   0  0  0  0  0  0  0  0  0  0  0  0
    2.1745   -0.0866   -0.2451 C   0  0  0  0  0  0  0  0  0  0  0  0
    3.6522    0.0583   -0.2333 C   0  0  0  0  0  0  0  0  0  0  0  0
    4.4109    1.0709   -0.6598 C   0  0  0  0  0  0  0  0  0  0  0  0
    5.7348    0.6471   -0.3941 C   0  0  0  0  0  0  0  0  0  0  0  0
    5.6293   -0.6006    0.1752 C   0  0  0  0  0  0  0  0  0  0  0  0
   -2.6432    4.1863    0.7048 H   0  0  0  0  0  0  0  0  0  0  0  0
   -1.4609    4.5732   -0.5613 H   0  0  0  0  0  0  0  0  0  0  0  0
    0.1378    2.9869    0.3590 H   0  0  0  0  0  0  0  0  0  0  0  0
   -0.5289    3.7381    1.8216 H   0  0  0  0  0  0  0  0  0  0  0  0
   -3.4267    2.7605   -1.0220 H   0  0  0  0  0  0  0  0  0  0  0  0
   -1.7861    2.4373   -1.6401 H   0  0  0  0  0  0  0  0  0  0  0  0
   -0.6078    1.0591    1.5468 H   0  0  0  0  0  0  0  0  0  0  0  0
   -2.0271    1.8910    2.2013 H   0  0  0  0  0  0  0  0  0  0  0  0
   -4.8417    0.9240   -0.0432 H   0  0  0  0  0  0  0  0  0  0  0  0
   -2.0279   -3.1225   -0.5874 H   0  0  0  0  0  0  0  0  0  0  0  0
   -5.8690   -1.2748   -0.4340 H   0  0  0  0  0  0  0  0  0  0  0  0
   -0.2700    0.0388   -0.2978 H   0  0  0  0  0  0  0  0  0  0  0  0
   -4.4522   -3.2953   -0.6801 H   0  0  0  0  0  0  0  0  0  0  0  0
    2.3849   -1.9318    0.6506 H   0  0  0  0  0  0  0  0  0  0  0  0
    4.0974    2.0034   -1.1062 H   0  0  0  0  0  0  0  0  0  0  0  0
    6.6514    1.1836   -0.5927 H   0  0  0  0  0  0  0  0  0  0  0  0
    6.3484   -1.3175    0.5439 H   0  0  0  0  0  0  0  0  0  0  0  0
  1 17  2  0  0  0  0
  2 19  1  0  0  0  0
  2 22  1  0  0  0  0
  3 18  2  0  0  0  0
  4  9  1  0  0  0  0
  4 10  1  0  0  0  0
  4 11  1  0  0  0  0
  5 12  1  0  0  0  0
  5 17  1  0  0  0  0
  5 34  1  0  0  0  0
  6 17  1  0  0  0  0
  6 18  1  0  0  0  0
  6 36  1  0  0  0  0
  7  8  1  0  0  0  0
  7  9  1  0  0  0  0
  7 23  1  0  0  0  0
  7 24  1  0  0  0  0
  8 10  1  0  0  0  0
  8 25  1  0  0  0  0
  8 26  1  0  0  0  0
  9 27  1  0  0  0  0
  9 28  1  0  0  0  0
 10 29  1  0  0  0  0
 10 30  1  0  0  0  0
 11 12  1  0  0  0  0
 11 13  2  0  0  0  0
 12 14  2  0  0  0  0
 13 15  1  0  0  0  0
 13 31  1  0  0  0  0
 14 16  1  0  0  0  0
 14 32  1  0  0  0  0
 15 16  2  0  0  0  0
 15 33  1  0  0  0  0
 16 35  1  0  0  0  0
 18 19  1  0  0  0  0
 19 20  2  0  0  0  0
 20 21  1  0  0  0  0
 20 37  1  0  0  0  0
 21 22  2  0  0  0  0
 21 38  1  0  0  0  0
 22 39  1  0  0  0  0
M  END
> <PUBCHEM_COMPOUND_CID>
891188

> <PUBCHEM_CONFORMER_RMSD>
0.8

> <PUBCHEM_CONFORMER_DIVERSEORDER>
1
16
15
13
4
14
17
10
23
19
20
5
12
11
21
2
3
22
8
6
7
9
18

> <PUBCHEM_MMFF94_PARTIAL_CHARGES>
29
1 -0.38
10 0.37
11 0.1
12 0.12
13 -0.15
14 -0.15
15 -0.15
16 -0.15
17 0.5
18 0.71
19 0.05
2 -0.28
20 -0.15
21 -0.15
22 -0.01
3 -0.57
31 0.15
32 0.15
33 0.15
34 0.37
35 0.15
36 0.37
37 0.15
38 0.15
39 0.15
4 -0.84
5 -0.55
6 -0.49
9 0.37

> <PUBCHEM_EFFECTIVE_ROTOR_COUNT>
7

> <PUBCHEM_PHARMACOPHORE_FEATURES>
9
1 1 acceptor
1 2 acceptor
1 3 acceptor
1 4 cation
1 5 donor
1 6 donor
5 2 19 20 21 22 rings
5 4 7 8 9 10 rings
6 11 12 13 14 15 16 rings

> <PUBCHEM_HEAVY_ATOM_COUNT>
22

> <PUBCHEM_ATOM_DEF_STEREO_COUNT>
0

> <PUBCHEM_ATOM_UDEF_STEREO_COUNT>
0

> <PUBCHEM_BOND_DEF_STEREO_COUNT>
0

> <PUBCHEM_BOND_UDEF_STEREO_COUNT>
0

> <PUBCHEM_ISOTOPIC_ATOM_COUNT>
0

> <PUBCHEM_COMPONENT_COUNT>
1

> <PUBCHEM_CACTVS_TAUTO_COUNT>
5

> <PUBCHEM_CONFORMER_ID>
000D993400000001

> <PUBCHEM_MMFF94_ENERGY>
79.5464

> <PUBCHEM_FEATURE_SELFOVERLAP>
45.708

> <PUBCHEM_SHAPE_FINGERPRINT>
10498660 4 18411133615185024877
10670039 82 18337405876692321060
10871710 139 18408610236189364877
1100329 8 18338241591149012897
11045515 52 18261389009559279429
12107183 9 17759235198881609850
12166972 35 17895475946028449108
12236239 1 18187080667700333814
12403260 363 18407759231754294848
12553582 1 18339628023888335323
12788726 201 18408880737324129266
12916748 109 18408891737194329158
13032168 30 18412550890010543248
13140716 1 18338245980521323457
13402501 40 17985818470593786168
13403585 85 18271516577187880216
138480 1 15601740299568004553
14251751 93 18339641140338415254
14251757 17 17700993049919294782
14347332 77 18342176618442402630
14787075 74 18337953492726180790
14790565 3 17910680856861162297
14910302 57 17560818614406433046
17492 89 18339361842795020934
192875 21 18041285451600699092
20510252 161 18412265025450317410
20775438 99 16758569038993280383
21033650 10 18196119701901220812
21049683 271 18189052165901897295
21141583 151 18342740753532023128
21267235 1 18338803428743392943
21857420 4 15401836514284696238
2297311 6 18272098218142719478
23352939 185 18130793420637226849
23402539 116 18342454884756510438
23419403 2 17417232355669003889
23557571 272 18131920350982740260
23559900 14 18269551805511724992
283562 15 18408885131202234323
335352 9 18341330085400019087
4214541 1 18411138000821296932
469060 322 18336846237647066609
59755656 215 18341897355125825838
9981440 41 18260830349840447850

> <PUBCHEM_SHAPE_MULTIPOLES>
429.92
10.66
3.9
0.92
13.77
2.01
0.18
-1.72
-2.27
-3.71
0.92
-0.11
0.09
-0.91

> <PUBCHEM_SHAPE_SELFOVERLAP>
908.251

> <PUBCHEM_SHAPE_VOLUME>
243.2

> <PUBCHEM_COORDINATE_TYPE>
2
5
10

$$$$
