6883462
  -OEChem-01171811543D

 28 28  0     0  0  0  0  0  0999 V2000
    4.7950    2.8082   -0.0005 Br  0  0  0  0  0  0  0  0  0  0  0  0
   -4.4586    0.4564    0.0000 O   0  0  0  0  0  0  0  0  0  0  0  0
   -3.5644   -1.6767   -0.0010 O   0  0  0  0  0  0  0  0  0  0  0  0
   -2.0976    1.4674    0.0004 O   0  0  0  0  0  0  0  0  0  0  0  0
   -1.0722   -0.6266   -0.0004 N   0  0  0  0  0  0  0  0  0  0  0  0
    0.1826   -0.1233   -0.0005 N   0  0  0  0  0  0  0  0  0  0  0  0
    2.5405   -0.6732    0.0000 C   0  0  0  0  0  0  0  0  0  0  0  0
    2.9112    0.6615   -0.0006 C   0  0  0  0  0  0  0  0  0  0  0  0
    3.4867   -1.6849    0.0007 C   0  0  0  0  0  0  0  0  0  0  0  0
    4.2659    0.9938   -0.0002 C   0  0  0  0  0  0  0  0  0  0  0  0
    4.8414   -1.3528    0.0011 C   0  0  0  0  0  0  0  0  0  0  0  0
   -5.7886   -0.0713    0.0004 C   0  0  0  0  0  0  0  0  0  0  0  0
    5.2310   -0.0133    0.0006 C   0  0  0  0  0  0  0  0  0  0  0  0
    1.1096   -1.0253   -0.0006 C   0  0  0  0  0  0  0  0  0  0  0  0
   -6.7747    1.0773    0.0012 C   0  0  0  0  0  0  0  0  0  0  0  0
   -3.4730   -0.4638   -0.0007 C   0  0  0  0  0  0  0  0  0  0  0  0
   -2.1349    0.2465    0.0001 C   0  0  0  0  0  0  0  0  0  0  0  0
    2.1673    1.4540   -0.0013 H   0  0  0  0  0  0  0  0  0  0  0  0
    3.1956   -2.7315    0.0010 H   0  0  0  0  0  0  0  0  0  0  0  0
    5.5929   -2.1370    0.0017 H   0  0  0  0  0  0  0  0  0  0  0  0
   -5.9378   -0.6869   -0.8938 H   0  0  0  0  0  0  0  0  0  0  0  0
   -5.9371   -0.6874    0.8944 H   0  0  0  0  0  0  0  0  0  0  0  0
    6.2907    0.2284    0.0010 H   0  0  0  0  0  0  0  0  0  0  0  0
    0.8698   -2.1053   -0.0006 H   0  0  0  0  0  0  0  0  0  0  0  0
   -7.8043    0.7088    0.0015 H   0  0  0  0  0  0  0  0  0  0  0  0
   -6.6260    1.7123    0.8808 H   0  0  0  0  0  0  0  0  0  0  0  0
   -6.6268    1.7127   -0.8782 H   0  0  0  0  0  0  0  0  0  0  0  0
   -1.1904   -1.6352   -0.0007 H   0  0  0  0  0  0  0  0  0  0  0  0
  1 10  1  0  0  0  0
  2 12  1  0  0  0  0
  2 16  1  0  0  0  0
  3 16  2  0  0  0  0
  4 17  2  0  0  0  0
  5  6  1  0  0  0  0
  5 17  1  0  0  0  0
  5 28  1  0  0  0  0
  6 14  2  0  0  0  0
  7  8  2  0  0  0  0
  7  9  1  0  0  0  0
  7 14  1  0  0  0  0
  8 10  1  0  0  0  0
  8 18  1  0  0  0  0
  9 11  2  0  0  0  0
  9 19  1  0  0  0  0
 10 13  2  0  0  0  0
 11 13  1  0  0  0  0
 11 20  1  0  0  0  0
 12 15  1  0  0  0  0
 12 21  1  0  0  0  0
 12 22  1  0  0  0  0
 13 23  1  0  0  0  0
 14 24  1  0  0  0  0
 15 25  1  0  0  0  0
 15 26  1  0  0  0  0
 15 27  1  0  0  0  0
 16 17  1  0  0  0  0
M  END
> <PUBCHEM_COMPOUND_CID>
6883462

> <PUBCHEM_CONFORMER_RMSD>
0.8

> <PUBCHEM_CONFORMER_DIVERSEORDER>
2
22
15
3
20
17
23
16
21
5
24
11
18
8
25
9
19
6
4
13
10
14
1
7
12

> <PUBCHEM_MMFF94_PARTIAL_CHARGES>
22
1 -0.11
10 0.11
11 -0.15
12 0.28
13 -0.15
14 0.3
16 0.72
17 0.63
18 0.15
19 0.15
2 -0.43
20 0.15
23 0.15
24 0.06
28 0.37
3 -0.57
4 -0.57
5 -0.37
6 -0.51
7 0.09
8 -0.15
9 -0.15

> <PUBCHEM_EFFECTIVE_ROTOR_COUNT>
6

> <PUBCHEM_PHARMACOPHORE_FEATURES>
6
1 1 hydrophobe
1 3 acceptor
1 4 acceptor
1 5 donor
1 6 acceptor
6 7 8 9 10 11 13 rings

> <PUBCHEM_HEAVY_ATOM_COUNT>
17

> <PUBCHEM_ATOM_DEF_STEREO_COUNT>
0

> <PUBCHEM_ATOM_UDEF_STEREO_COUNT>
0

> <PUBCHEM_BOND_DEF_STEREO_COUNT>
1

> <PUBCHEM_BOND_UDEF_STEREO_COUNT>
0

> <PUBCHEM_ISOTOPIC_ATOM_COUNT>
0

> <PUBCHEM_COMPONENT_COUNT>
1

> <PUBCHEM_CACTVS_TAUTO_COUNT>
2

> <PUBCHEM_CONFORMER_ID>
0069088600000002

> <PUBCHEM_MMFF94_ENERGY>
30.2636

> <PUBCHEM_FEATURE_SELFOVERLAP>
30.45

> <PUBCHEM_SHAPE_FINGERPRINT>
10411042 1 17978229362704305154
10595046 47 18342174492396095815
11287383 113 18407761455951248955
12107183 9 17619068330668697810
12236239 1 18343300375286560751
12403259 415 17895184498232797940
13081056 2 18335419058663971052
13167372 99 18270684164754105249
13167823 11 18412823594848872310
13533116 47 17168416065484828842
13955234 65 18115019710956585314
1420 363 18040442074980021851
14251732 16 18336549421368914331
14341114 176 18409453582850317644
14528608 73 18342739667073998404
15196674 1 18410855507372828034
16079462 125 17822280285016523629
17834072 33 18341893012813279062
17834076 25 15647055949725373779
17844677 252 18339649949015983664
19427546 62 18336829801050024954
20281389 69 18261110747529407101
20645477 70 18341050710030021286
21267235 1 18339930324997933830
212847 35 18201718466259164376
21315763 28 18411135819056953719
21652331 79 18410572898783610428
221357 26 18341333306140590292
23081809 10 17917989473837562351
23402539 116 18411695496087365039
23402655 69 18343581871669678998
23532345 1 18408606993889573976
23559900 14 18410572894662606154
239999 70 18343025467573932326
29717793 49 17846783983814819830
300161 21 18411414020920613579
34797466 226 17917440851141004701
3545911 37 18335703831922272950
4073 2 18041284369342975562
4214541 1 18410856512400560484
42788 4 18410575072242511111
4463277 17 18410575068216634161
5104073 3 18334295400339726027
5374978 207 18334009484635661096
542803 24 17095245812903099591
54446538 1 18342176635310749432
77779 3 18411700989155208066

> <PUBCHEM_SHAPE_MULTIPOLES>
328.22
16.22
2.05
0.6
18.86
1.03
0
4.8
0
-3.02
0
-0.11
0.03
0

> <PUBCHEM_SHAPE_SELFOVERLAP>
658.943

> <PUBCHEM_SHAPE_VOLUME>
195.4

> <PUBCHEM_COORDINATE_TYPE>
2
5
10

$$$$
