53383745
  -OEChem-01171812183D

 37 39  0     0  0  0  0  0  0999 V2000
    0.4231   -3.5010   -0.3934 O   0  0  0  0  0  0  0  0  0  0  0  0
   -1.2995   -2.2817    0.7726 O   0  0  0  0  0  0  0  0  0  0  0  0
    3.3163   -1.6998   -0.1827 N   0  0  0  0  0  0  0  0  0  0  0  0
   -0.0660   -0.6046   -0.2692 N   0  0  0  0  0  0  0  0  0  0  0  0
    2.6918   -2.9063   -0.2467 N   0  0  0  0  0  0  0  0  0  0  0  0
    2.3823   -0.6947   -0.1412 C   0  0  0  0  0  0  0  0  0  0  0  0
    1.1439   -1.2049   -0.2361 C   0  0  0  0  0  0  0  0  0  0  0  0
    2.7909    0.7061   -0.0049 C   0  0  0  0  0  0  0  0  0  0  0  0
    1.3230   -2.6839   -0.3060 C   0  0  0  0  0  0  0  0  0  0  0  0
   -2.4659   -0.3541    0.1328 C   0  0  0  0  0  0  0  0  0  0  0  0
   -1.2328   -1.1767    0.2397 C   0  0  0  0  0  0  0  0  0  0  0  0
    2.4491    1.6314   -0.9913 C   0  0  0  0  0  0  0  0  0  0  0  0
    3.5216    1.1141    1.1109 C   0  0  0  0  0  0  0  0  0  0  0  0
   -4.7813    1.1886   -0.0689 C   0  0  0  0  0  0  0  0  0  0  0  0
   -3.5037   -0.5310    1.0480 C   0  0  0  0  0  0  0  0  0  0  0  0
   -2.5858    0.5942   -0.8830 C   0  0  0  0  0  0  0  0  0  0  0  0
   -4.6615    0.2404    0.9471 C   0  0  0  0  0  0  0  0  0  0  0  0
   -3.7435    1.3655   -0.9839 C   0  0  0  0  0  0  0  0  0  0  0  0
    2.8380    2.9647   -0.8617 C   0  0  0  0  0  0  0  0  0  0  0  0
    3.9105    2.4473    1.2405 C   0  0  0  0  0  0  0  0  0  0  0  0
    3.5687    3.3727    0.2542 C   0  0  0  0  0  0  0  0  0  0  0  0
   -6.0192    2.0138   -0.1769 C   0  0  0  0  0  0  0  0  0  0  0  0
    4.2722   -1.5976    0.1271 H   0  0  0  0  0  0  0  0  0  0  0  0
   -0.0660    0.3935   -0.4598 H   0  0  0  0  0  0  0  0  0  0  0  0
    3.2167   -3.7702   -0.2715 H   0  0  0  0  0  0  0  0  0  0  0  0
    1.8844    1.3316   -1.8709 H   0  0  0  0  0  0  0  0  0  0  0  0
    3.7941    0.4073    1.8910 H   0  0  0  0  0  0  0  0  0  0  0  0
   -3.4273   -1.2611    1.8494 H   0  0  0  0  0  0  0  0  0  0  0  0
   -1.8097    0.7431   -1.6283 H   0  0  0  0  0  0  0  0  0  0  0  0
   -5.4621    0.0954    1.6677 H   0  0  0  0  0  0  0  0  0  0  0  0
   -3.8270    2.0987   -1.7818 H   0  0  0  0  0  0  0  0  0  0  0  0
    2.5729    3.6851   -1.6301 H   0  0  0  0  0  0  0  0  0  0  0  0
    4.4788    2.7653    2.1097 H   0  0  0  0  0  0  0  0  0  0  0  0
    3.8716    4.4107    0.3552 H   0  0  0  0  0  0  0  0  0  0  0  0
   -6.8928    1.4661    0.1927 H   0  0  0  0  0  0  0  0  0  0  0  0
   -6.2262    2.2809   -1.2188 H   0  0  0  0  0  0  0  0  0  0  0  0
   -5.9094    2.9336    0.4060 H   0  0  0  0  0  0  0  0  0  0  0  0
  1  9  2  0  0  0  0
  2 11  2  0  0  0  0
  3  5  1  0  0  0  0
  3  6  1  0  0  0  0
  3 23  1  0  0  0  0
  4  7  1  0  0  0  0
  4 11  1  0  0  0  0
  4 24  1  0  0  0  0
  5  9  1  0  0  0  0
  5 25  1  0  0  0  0
  6  7  2  0  0  0  0
  6  8  1  0  0  0  0
  7  9  1  0  0  0  0
  8 12  2  0  0  0  0
  8 13  1  0  0  0  0
 10 11  1  0  0  0  0
 10 15  2  0  0  0  0
 10 16  1  0  0  0  0
 12 19  1  0  0  0  0
 12 26  1  0  0  0  0
 13 20  2  0  0  0  0
 13 27  1  0  0  0  0
 14 17  2  0  0  0  0
 14 18  1  0  0  0  0
 14 22  1  0  0  0  0
 15 17  1  0  0  0  0
 15 28  1  0  0  0  0
 16 18  2  0  0  0  0
 16 29  1  0  0  0  0
 17 30  1  0  0  0  0
 18 31  1  0  0  0  0
 19 21  2  0  0  0  0
 19 32  1  0  0  0  0
 20 21  1  0  0  0  0
 20 33  1  0  0  0  0
 21 34  1  0  0  0  0
 22 35  1  0  0  0  0
 22 36  1  0  0  0  0
 22 37  1  0  0  0  0
M  END
> <PUBCHEM_COMPOUND_CID>
53383745

> <PUBCHEM_CONFORMER_RMSD>
0.6

> <PUBCHEM_CONFORMER_DIVERSEORDER>
2
4
5
6
16
12
7
15
11
1
18
3
17
14
10
13
8
9

> <PUBCHEM_MMFF94_PARTIAL_CHARGES>
34
1 -0.57
10 0.09
11 0.54
12 -0.15
13 -0.15
14 -0.14
15 -0.15
16 -0.15
17 -0.15
18 -0.15
19 -0.15
2 -0.57
20 -0.15
21 -0.15
22 0.14
23 0.4
24 0.37
25 0.37
26 0.15
27 0.15
28 0.15
29 0.15
3 -0.52
30 0.15
31 0.15
32 0.15
33 0.15
34 0.15
4 -0.54
5 -0.41
6 0.07
7 0.12
8 0.03
9 0.62

> <PUBCHEM_EFFECTIVE_ROTOR_COUNT>
4

> <PUBCHEM_PHARMACOPHORE_FEATURES>
8
1 1 acceptor
1 2 acceptor
1 3 donor
1 4 donor
1 5 donor
5 3 5 6 7 9 rings
6 10 14 15 16 17 18 rings
6 8 12 13 19 20 21 rings

> <PUBCHEM_HEAVY_ATOM_COUNT>
22

> <PUBCHEM_ATOM_DEF_STEREO_COUNT>
0

> <PUBCHEM_ATOM_UDEF_STEREO_COUNT>
0

> <PUBCHEM_BOND_DEF_STEREO_COUNT>
0

> <PUBCHEM_BOND_UDEF_STEREO_COUNT>
0

> <PUBCHEM_ISOTOPIC_ATOM_COUNT>
0

> <PUBCHEM_COMPONENT_COUNT>
1

> <PUBCHEM_CACTVS_TAUTO_COUNT>
25

> <PUBCHEM_CONFORMER_ID>
032E924100000002

> <PUBCHEM_MMFF94_ENERGY>
84.084

> <PUBCHEM_FEATURE_SELFOVERLAP>
42.222

> <PUBCHEM_SHAPE_FINGERPRINT>
10411042 1 17691124833870159486
10670039 82 17903086864917821628
11370993 70 18338512044628115008
11595378 159 15647051547368143269
12035758 1 18265031593319755202
12107183 9 18193539272960957152
12173636 292 17836081556815863574
12403259 327 16588022445893536360
12403259 415 18409177618612079451
12633257 1 17531513391036691928
12769317 202 18272365399357785176
12925494 130 18120091681345760201
13134695 92 18122337978635894038
13140716 1 18409165532490134802
13878862 14 18263347115393898653
13965767 371 18188473792251904428
14251764 75 18267879452289217777
14466204 15 17973999549038033074
14468879 13 18189060944118659921
14848178 96 18341896307238116937
14932701 244 16768141301229522957
15342168 16 18410857702518107757
15420108 30 18198602489404247578
17810953 82 18410293596976247753
1798214 55 18340771562682718904
18785283 64 18408041805984118530
19784866 34 18200872980113648097
1979834 28 18333457555764156349
20157964 124 18411695457791309973
20621476 13 18410007698241173037
20715895 44 18338227177023094065
21033648 29 17531522067403471349
21304303 282 17271132618304413462
21452121 103 18409443665749797345
21475661 188 18187922846520806061
21709351 56 18341328916288622167
21860390 5 18128542561099658694
22122407 14 17985849038287521345
22149856 69 18264230109815559883
23559900 14 18337674105346487403
283562 15 17617671951735787414
312425 83 14907361726763877048
474 4 18412542106875976769
49207404 50 18260840335860527681
495365 180 18342451526070673859
5048184 11 18268432515032010692
5104073 3 18334019363635358073
7064713 232 18264484173135282228
7808743 9 17833274495035688884
960060 61 11527950079663924937
9981440 41 18266734864715121138

> <PUBCHEM_SHAPE_MULTIPOLES>
426.07
10.62
3.98
1.04
11.84
0.96
0.11
-9.16
1.37
-4.29
-0.37
-0.06
-0.39
1.12

> <PUBCHEM_SHAPE_SELFOVERLAP>
936.804

> <PUBCHEM_SHAPE_VOLUME>
229.4

> <PUBCHEM_COORDINATE_TYPE>
2
5
10

$$$$
