1096462
  -OEChem-01171812003D

 37 39  0     0  0  0  0  0  0999 V2000
   -0.9340    0.0917   -0.0169 N   0  0  0  0  0  0  0  0  0  0  0  0
    1.3823   -0.3195   -0.0242 N   0  0  0  0  0  0  0  0  0  0  0  0
   -0.3002   -2.0364    0.0249 N   0  0  0  0  0  0  0  0  0  0  0  0
   -2.0860   -0.6419    0.0073 C   0  0  0  0  0  0  0  0  0  0  0  0
    0.1121   -0.7886   -0.0055 C   0  0  0  0  0  0  0  0  0  0  0  0
    2.5666   -1.1569   -0.0134 C   0  0  0  0  0  0  0  0  0  0  0  0
   -3.4141   -0.0781    0.0051 C   0  0  0  0  0  0  0  0  0  0  0  0
   -1.6700   -1.9518    0.0324 C   0  0  0  0  0  0  0  0  0  0  0  0
   -0.8423    1.5360   -0.0498 C   0  0  0  0  0  0  0  0  0  0  0  0
    3.8312   -0.3399   -0.0039 C   0  0  0  0  0  0  0  0  0  0  0  0
   -4.0469    0.2206    1.2117 C   0  0  0  0  0  0  0  0  0  0  0  0
   -4.0650    0.1686   -1.2036 C   0  0  0  0  0  0  0  0  0  0  0  0
    4.4152    0.0291   -1.2076 C   0  0  0  0  0  0  0  0  0  0  0  0
    4.3954    0.0326    1.2082 C   0  0  0  0  0  0  0  0  0  0  0  0
   -5.3307    0.7660    1.2095 C   0  0  0  0  0  0  0  0  0  0  0  0
   -5.3488    0.7141   -1.2057 C   0  0  0  0  0  0  0  0  0  0  0  0
   -5.9817    1.0128    0.0009 C   0  0  0  0  0  0  0  0  0  0  0  0
    5.5869    0.7860   -1.1991 C   0  0  0  0  0  0  0  0  0  0  0  0
    5.5671    0.7894    1.2167 C   0  0  0  0  0  0  0  0  0  0  0  0
    6.1628    1.1661    0.0131 C   0  0  0  0  0  0  0  0  0  0  0  0
    2.5629   -1.8176   -0.8898 H   0  0  0  0  0  0  0  0  0  0  0  0
    2.5500   -1.8153    0.8648 H   0  0  0  0  0  0  0  0  0  0  0  0
    1.5547    0.6826   -0.0505 H   0  0  0  0  0  0  0  0  0  0  0  0
   -2.2828   -2.8418    0.0561 H   0  0  0  0  0  0  0  0  0  0  0  0
   -0.2955    1.8655    0.8378 H   0  0  0  0  0  0  0  0  0  0  0  0
   -0.3107    1.8255   -0.9603 H   0  0  0  0  0  0  0  0  0  0  0  0
   -1.8323    1.9943   -0.0515 H   0  0  0  0  0  0  0  0  0  0  0  0
   -3.5529    0.0349    2.1625 H   0  0  0  0  0  0  0  0  0  0  0  0
   -3.5852   -0.0578   -2.1529 H   0  0  0  0  0  0  0  0  0  0  0  0
    3.9736   -0.2601   -2.1571 H   0  0  0  0  0  0  0  0  0  0  0  0
    3.9382   -0.2539    2.1511 H   0  0  0  0  0  0  0  0  0  0  0  0
   -5.8235    0.9989    2.1490 H   0  0  0  0  0  0  0  0  0  0  0  0
   -5.8555    0.9067   -2.1468 H   0  0  0  0  0  0  0  0  0  0  0  0
   -6.9812    1.4377   -0.0008 H   0  0  0  0  0  0  0  0  0  0  0  0
    6.0505    1.0798   -2.1362 H   0  0  0  0  0  0  0  0  0  0  0  0
    6.0152    1.0860    2.1606 H   0  0  0  0  0  0  0  0  0  0  0  0
    7.0749    1.7556    0.0198 H   0  0  0  0  0  0  0  0  0  0  0  0
  1  4  1  0  0  0  0
  1  5  1  0  0  0  0
  1  9  1  0  0  0  0
  2  5  1  0  0  0  0
  2  6  1  0  0  0  0
  2 23  1  0  0  0  0
  3  5  2  0  0  0  0
  3  8  1  0  0  0  0
  4  7  1  0  0  0  0
  4  8  2  0  0  0  0
  6 10  1  0  0  0  0
  6 21  1  0  0  0  0
  6 22  1  0  0  0  0
  7 11  2  0  0  0  0
  7 12  1  0  0  0  0
  8 24  1  0  0  0  0
  9 25  1  0  0  0  0
  9 26  1  0  0  0  0
  9 27  1  0  0  0  0
 10 13  2  0  0  0  0
 10 14  1  0  0  0  0
 11 15  1  0  0  0  0
 11 28  1  0  0  0  0
 12 16  2  0  0  0  0
 12 29  1  0  0  0  0
 13 18  1  0  0  0  0
 13 30  1  0  0  0  0
 14 19  2  0  0  0  0
 14 31  1  0  0  0  0
 15 17  2  0  0  0  0
 15 32  1  0  0  0  0
 16 17  1  0  0  0  0
 16 33  1  0  0  0  0
 17 34  1  0  0  0  0
 18 20  2  0  0  0  0
 18 35  1  0  0  0  0
 19 20  1  0  0  0  0
 19 36  1  0  0  0  0
 20 37  1  0  0  0  0
M  END
> <PUBCHEM_COMPOUND_CID>
1096462

> <PUBCHEM_CONFORMER_RMSD>
0.6

> <PUBCHEM_CONFORMER_DIVERSEORDER>
1
7
20
6
21
3
15
16
12
11
10
14
4
8
5
18
17
9
13
19
2

> <PUBCHEM_MMFF94_PARTIAL_CHARGES>
32
1 0.05
10 -0.14
11 -0.15
12 -0.15
13 -0.15
14 -0.15
15 -0.15
16 -0.15
17 -0.15
18 -0.15
19 -0.15
2 -0.85
20 -0.15
23 0.4
24 0.15
28 0.15
29 0.15
3 -0.57
30 0.15
31 0.15
32 0.15
33 0.15
34 0.15
35 0.15
36 0.15
37 0.15
4 -0.2
5 0.27
6 0.51
7 0.05
8 0.08
9 0.26

> <PUBCHEM_EFFECTIVE_ROTOR_COUNT>
4

> <PUBCHEM_PHARMACOPHORE_FEATURES>
5
1 2 donor
4 1 2 3 5 cation
5 1 3 4 5 8 rings
6 10 13 14 18 19 20 rings
6 7 11 12 15 16 17 rings

> <PUBCHEM_HEAVY_ATOM_COUNT>
20

> <PUBCHEM_ATOM_DEF_STEREO_COUNT>
0

> <PUBCHEM_ATOM_UDEF_STEREO_COUNT>
0

> <PUBCHEM_BOND_DEF_STEREO_COUNT>
0

> <PUBCHEM_BOND_UDEF_STEREO_COUNT>
0

> <PUBCHEM_ISOTOPIC_ATOM_COUNT>
0

> <PUBCHEM_COMPONENT_COUNT>
1

> <PUBCHEM_CACTVS_TAUTO_COUNT>
2

> <PUBCHEM_CONFORMER_ID>
0010BB0E00000001

> <PUBCHEM_MMFF94_ENERGY>
50.2063

> <PUBCHEM_FEATURE_SELFOVERLAP>
25.373

> <PUBCHEM_SHAPE_FINGERPRINT>
10 15 17458070382203523001
10354089 29 16732986440556871972
10670039 82 18263095327420944564
10906281 52 18270696323484461284
11089746 13 17775280569597089706
117890 112 18412543210782798548
12166972 35 13038900057964988555
12236239 1 17603865624452808970
12390115 104 17986685783188314921
12596602 18 16081089281334162984
12616971 3 17168136880295404758
12969540 114 18272076189313370287
13288520 33 9151173156226936379
13403585 85 16298383552802827773
13533116 47 18271244907490092006
13631057 29 18338229501239048587
13668630 136 12247683781462448220
1420 363 9367345942013247276
14251764 18 17822013129602968345
14528608 73 17060335227904831518
15048467 5 18413389834462016000
15183329 4 15554453972121403330
15188451 53 14129351727719588241
15348495 7 15719682038403710920
17834072 33 15697997440047252364
17844677 252 8070029969320031710
1813 80 8070025605517175643
18222031 100 9655574110879069922
18927931 339 9511464437815132481
200 152 11167943545727536215
20281389 69 18333447638241109688
20645477 56 18333446551645980590
20645477 70 16343712002411489326
21150785 3 17131827694504346221
22061861 79 13470689234922749744
22079108 93 16153713145461274160
221357 26 16917073239931506512
22224240 67 18187652397358101907
2297311 6 14836401433251954515
23035841 295 11239997867501427853
23081809 10 18059571356620719639
23198884 109 16917071049081096391
23522609 53 8501526843683703150
23536379 177 15430034348666384500
23559900 14 13038889049842703239
2767999 5 18410851062123998148
293599 30 18410857659278245275
29717793 49 13326863227585549960
300161 21 18409444800032704342
3472631 163 18338801225509176724
34797466 226 15913323628314728297
34934 24 18409442592092739418
3545911 37 18334860507126313006
3663271 9 15502377833071050584
4340502 62 16370727006514780618
465052 167 9799688225318414896
5104073 3 17750232681156870384
542803 24 17632859715511292114
543368 44 18060416920017690145
59682541 52 16486978328107046524
59755656 215 9655586196779981857
960060 61 15985107414356636490

> <PUBCHEM_SHAPE_MULTIPOLES>
396.65
16.57
1.47
1.21
6.33
0.47
0
-7.76
0
-0.16
-0.01
0.09
-0.26
-0.01

> <PUBCHEM_SHAPE_SELFOVERLAP>
862.153

> <PUBCHEM_SHAPE_VOLUME>
216.5

> <PUBCHEM_COORDINATE_TYPE>
2
5
10

$$$$
