1911668
  -OEChem-01171811513D

 41 43  0     0  0  0  0  0  0999 V2000
    4.1206   -0.8948   -0.4717 S   0  0  0  0  0  0  0  0  0  0  0  0
   -2.5928   -2.4741    0.4153 O   0  0  0  0  0  0  0  0  0  0  0  0
   -5.9409    1.7486   -0.7503 O   0  0  0  0  0  0  0  0  0  0  0  0
   -0.8911    0.1242   -1.7734 O   0  0  0  0  0  0  0  0  0  0  0  0
   -2.0175    0.2552    2.7970 O   0  0  0  0  0  0  0  0  0  0  0  0
    2.3334    0.9025    1.6001 O   0  0  0  0  0  0  0  0  0  0  0  0
    7.8144    0.1493   -0.0630 O   0  5  0  0  0  0  0  0  0  0  0  0
    6.7972   -1.7918    0.1251 O   0  0  0  0  0  0  0  0  0  0  0  0
   -1.5501    0.1544    0.4858 N   0  0  0  0  0  0  0  0  0  0  0  0
    0.1033    0.6898    2.1140 N   0  0  0  0  0  0  0  0  0  0  0  0
    6.7643   -0.5506   -0.1056 N   0  3  0  0  0  0  0  0  0  0  0  0
   -2.9350   -0.1142    0.1528 C   0  0  0  0  0  0  0  0  0  0  0  0
    0.7965    0.3826   -0.1471 C   0  0  0  0  0  0  0  0  0  0  0  0
   -0.6156    0.1860   -0.5752 C   0  0  0  0  0  0  0  0  0  0  0  0
   -3.4081   -1.4198    0.1298 C   0  0  0  0  0  0  0  0  0  0  0  0
   -1.2316    0.3763    1.8523 C   0  0  0  0  0  0  0  0  0  0  0  0
   -3.7748    0.9529   -0.1402 C   0  0  0  0  0  0  0  0  0  0  0  0
    1.1785    0.6862    1.2463 C   0  0  0  0  0  0  0  0  0  0  0  0
    1.7702    0.2954   -1.0656 C   0  0  0  0  0  0  0  0  0  0  0  0
   -5.1102    0.7099   -0.4617 C   0  0  0  0  0  0  0  0  0  0  0  0
   -4.7436   -1.6627   -0.1917 C   0  0  0  0  0  0  0  0  0  0  0  0
   -5.5946   -0.5978   -0.4876 C   0  0  0  0  0  0  0  0  0  0  0  0
    3.1865    0.4666   -0.8695 C   0  0  0  0  0  0  0  0  0  0  0  0
    3.9041    1.6179   -0.9607 C   0  0  0  0  0  0  0  0  0  0  0  0
    5.2842    1.3849   -0.6943 C   0  0  0  0  0  0  0  0  0  0  0  0
    5.5404    0.0608   -0.4133 C   0  0  0  0  0  0  0  0  0  0  0  0
   -1.8937   -3.0662   -0.6773 C   0  0  0  0  0  0  0  0  0  0  0  0
   -7.2941    1.4284   -1.0704 C   0  0  0  0  0  0  0  0  0  0  0  0
   -3.4003    1.9733   -0.1209 H   0  0  0  0  0  0  0  0  0  0  0  0
    0.3258    0.8761    3.0883 H   0  0  0  0  0  0  0  0  0  0  0  0
    1.5037    0.0756   -2.0983 H   0  0  0  0  0  0  0  0  0  0  0  0
   -5.1269   -2.6794   -0.2129 H   0  0  0  0  0  0  0  0  0  0  0  0
   -6.6195   -0.8579   -0.7288 H   0  0  0  0  0  0  0  0  0  0  0  0
    3.4853    2.5866   -1.2028 H   0  0  0  0  0  0  0  0  0  0  0  0
    6.0412    2.1592   -0.7110 H   0  0  0  0  0  0  0  0  0  0  0  0
   -2.3830   -2.8725   -1.6381 H   0  0  0  0  0  0  0  0  0  0  0  0
   -1.8587   -4.1472   -0.5153 H   0  0  0  0  0  0  0  0  0  0  0  0
   -0.8685   -2.6876   -0.7016 H   0  0  0  0  0  0  0  0  0  0  0  0
   -7.8106    2.3727   -1.2719 H   0  0  0  0  0  0  0  0  0  0  0  0
   -7.8070    0.9577   -0.2249 H   0  0  0  0  0  0  0  0  0  0  0  0
   -7.3601    0.8269   -1.9833 H   0  0  0  0  0  0  0  0  0  0  0  0
  1 23  1  0  0  0  0
  1 26  1  0  0  0  0
  2 15  1  0  0  0  0
  2 27  1  0  0  0  0
  3 20  1  0  0  0  0
  3 28  1  0  0  0  0
  4 14  2  0  0  0  0
  5 16  2  0  0  0  0
  6 18  2  0  0  0  0
  7 11  1  0  0  0  0
  8 11  2  0  0  0  0
  9 12  1  0  0  0  0
  9 14  1  0  0  0  0
  9 16  1  0  0  0  0
 10 16  1  0  0  0  0
 10 18  1  0  0  0  0
 10 30  1  0  0  0  0
 11 26  1  0  0  0  0
 12 15  2  0  0  0  0
 12 17  1  0  0  0  0
 13 14  1  0  0  0  0
 13 18  1  0  0  0  0
 13 19  2  0  0  0  0
 15 21  1  0  0  0  0
 17 20  2  0  0  0  0
 17 29  1  0  0  0  0
 19 23  1  0  0  0  0
 19 31  1  0  0  0  0
 20 22  1  0  0  0  0
 21 22  2  0  0  0  0
 21 32  1  0  0  0  0
 22 33  1  0  0  0  0
 23 24  2  0  0  0  0
 24 25  1  0  0  0  0
 24 34  1  0  0  0  0
 25 26  2  0  0  0  0
 25 35  1  0  0  0  0
 27 36  1  0  0  0  0
 27 37  1  0  0  0  0
 27 38  1  0  0  0  0
 28 39  1  0  0  0  0
 28 40  1  0  0  0  0
 28 41  1  0  0  0  0
M  CHG  2   7  -1  11   1
M  END
> <PUBCHEM_COMPOUND_CID>
1911668

> <PUBCHEM_CONFORMER_RMSD>
0.8

> <PUBCHEM_CONFORMER_DIVERSEORDER>
1
10
7
4
11
6
9
2
8
5
12
3

> <PUBCHEM_MMFF94_PARTIAL_CHARGES>
35
1 -0.08
10 -0.49
11 0.96
12 0.12
13 0.03
14 0.62
15 0.08
16 0.69
17 -0.15
18 0.62
19 -0.11
2 -0.36
20 0.08
21 -0.15
22 -0.15
23 -0.01
24 -0.15
25 -0.15
26 0.12
27 0.28
28 0.28
29 0.15
3 -0.36
30 0.37
31 0.15
32 0.15
33 0.15
34 0.15
35 0.15
4 -0.57
5 -0.57
6 -0.57
7 -0.52
8 -0.52
9 -0.24

> <PUBCHEM_EFFECTIVE_ROTOR_COUNT>
5.4

> <PUBCHEM_PHARMACOPHORE_FEATURES>
13
1 10 donor
1 13 anion
1 2 acceptor
1 3 acceptor
1 4 acceptor
1 5 acceptor
1 6 acceptor
1 7 acceptor
1 7 anion
1 8 acceptor
5 1 23 24 25 26 rings
6 12 15 17 20 21 22 rings
6 9 10 13 14 16 18 rings

> <PUBCHEM_HEAVY_ATOM_COUNT>
28

> <PUBCHEM_ATOM_DEF_STEREO_COUNT>
0

> <PUBCHEM_ATOM_UDEF_STEREO_COUNT>
0

> <PUBCHEM_BOND_DEF_STEREO_COUNT>
1

> <PUBCHEM_BOND_UDEF_STEREO_COUNT>
0

> <PUBCHEM_ISOTOPIC_ATOM_COUNT>
0

> <PUBCHEM_COMPONENT_COUNT>
1

> <PUBCHEM_CACTVS_TAUTO_COUNT>
3

> <PUBCHEM_CONFORMER_ID>
001D2B7400000001

> <PUBCHEM_MMFF94_ENERGY>
122.0839

> <PUBCHEM_FEATURE_SELFOVERLAP>
66.057

> <PUBCHEM_SHAPE_FINGERPRINT>
10165383 225 18341614781813555105
10366900 7 16773805804741910210
10674148 151 17240762853204686812
10803635 8 18413109485041127919
10835480 77 18271803570781367344
11135609 99 13038319533496502533
11315181 36 17988929989119427712
11719270 70 18130787837570625966
11796584 16 18411983572423775078
12236239 1 17530960294286568373
12516196 113 14405185066796297328
12788726 201 17917430861363312795
13140716 1 16056027099353045590
13782708 43 17987232416692775847
13862211 1 16056881325182464109
13911987 19 16988288680623594253
13914758 101 18334576798244550724
13947920 75 18187361013454255365
14251752 14 18410009922849005501
14849402 71 11311474936654385578
15183329 4 18260827077090821369
15475509 8 17022905610291388916
15788980 27 18260274074729992068
18608769 82 18338521945683253707
19489759 90 18202567271939977909
20511986 3 18411974789394755890
21315764 119 18408041797272676342
21756936 100 17022903454608215545
23198884 109 18187083970846448629
23402539 116 17458064884624330796
23536379 177 18334013899788324748
23559900 14 18201995573011587545
23569914 2 17688537949488451277
23569943 247 17023732400085908170
24771293 8 14620792721756257960
249057 3 18335140899101430300
283562 15 15697731306899412611
3004659 81 18408602561541561042
3009799 131 17274819130199341609
339767 52 17847063277101260990
3633792 109 18199188390992596215
404807 14 17472984995605823546
4073 2 17677338341690510194
439807 62 18269276936026475655
5265222 85 18339926042330146374
5385378 56 15213293089292898224
559249 180 18407760343623492415
59682541 35 14620503546140879914
5969126 39 15913326858436415417
59755656 215 16081083762896760482
59755656 520 16226047799339333377
633830 44 16733550549729638948
7226269 152 17989208144371417539
9862886 166 18131634503829730746

> <PUBCHEM_SHAPE_MULTIPOLES>
524.05
17.59
1.95
1.57
12.33
1.37
-1.08
-1.58
5.31
-1.57
0.41
-0.5
-0.43
0.22

> <PUBCHEM_SHAPE_SELFOVERLAP>
1129.675

> <PUBCHEM_SHAPE_VOLUME>
290.1

> <PUBCHEM_COORDINATE_TYPE>
2
5
10

$$$$
