2573043
  -OEChem-01171811523D

 45 48  0     0  0  0  0  0  0999 V2000
    1.1799   -0.4869    1.6211 O   0  0  0  0  0  0  0  0  0  0  0  0
    4.0318    1.2219   -1.5716 O   0  0  0  0  0  0  0  0  0  0  0  0
    1.4360    2.0581   -2.2133 O   0  0  0  0  0  0  0  0  0  0  0  0
   -0.7510   -0.5732   -1.9901 O   0  0  0  0  0  0  0  0  0  0  0  0
    2.9487    0.1707    0.2414 N   0  0  0  0  0  0  0  0  0  0  0  0
    0.8674    0.8408   -0.2759 N   0  0  0  0  0  0  0  0  0  0  0  0
   -4.2900   -1.8688   -0.1419 N   0  0  0  0  0  0  0  0  0  0  0  0
    4.0304   -0.4659    0.9365 C   0  0  0  0  0  0  0  0  0  0  0  0
    5.1043    0.5154    1.3853 C   0  0  0  0  0  0  0  0  0  0  0  0
    4.7981   -1.4536    0.0625 C   0  0  0  0  0  0  0  0  0  0  0  0
    6.2853   -0.3922    1.6897 C   0  0  0  0  0  0  0  0  0  0  0  0
    6.2142   -1.4974    0.6389 C   0  0  0  0  0  0  0  0  0  0  0  0
    1.6138    0.1076    0.6408 C   0  0  0  0  0  0  0  0  0  0  0  0
    3.0712    0.9180   -0.8967 C   0  0  0  0  0  0  0  0  0  0  0  0
    1.6699    1.3689   -1.2435 C   0  0  0  0  0  0  0  0  0  0  0  0
   -0.5686    1.0193   -0.2112 C   0  0  0  0  0  0  0  0  0  0  0  0
   -1.2708   -0.0873   -0.9844 C   0  0  0  0  0  0  0  0  0  0  0  0
   -2.5920   -0.5479   -0.5221 C   0  0  0  0  0  0  0  0  0  0  0  0
   -3.5554    0.2178    0.1466 C   0  0  0  0  0  0  0  0  0  0  0  0
   -3.0395   -1.8151   -0.6966 C   0  0  0  0  0  0  0  0  0  0  0  0
   -4.6310   -0.6416    0.3805 C   0  0  0  0  0  0  0  0  0  0  0  0
   -3.6459    1.5531    0.5871 C   0  0  0  0  0  0  0  0  0  0  0  0
   -2.4384   -3.0071   -1.3264 C   0  0  0  0  0  0  0  0  0  0  0  0
   -5.7973   -0.2307    1.0356 C   0  0  0  0  0  0  0  0  0  0  0  0
   -4.8065    1.9781    1.2440 C   0  0  0  0  0  0  0  0  0  0  0  0
   -5.8644    1.0982    1.4636 C   0  0  0  0  0  0  0  0  0  0  0  0
    3.6375   -0.9953    1.8141 H   0  0  0  0  0  0  0  0  0  0  0  0
    4.7945    1.0965    2.2597 H   0  0  0  0  0  0  0  0  0  0  0  0
    5.3812    1.2258    0.5988 H   0  0  0  0  0  0  0  0  0  0  0  0
    4.8465   -1.1469   -0.9879 H   0  0  0  0  0  0  0  0  0  0  0  0
    4.3278   -2.4430    0.0760 H   0  0  0  0  0  0  0  0  0  0  0  0
    7.2389    0.1433    1.6644 H   0  0  0  0  0  0  0  0  0  0  0  0
    6.1735   -0.8270    2.6903 H   0  0  0  0  0  0  0  0  0  0  0  0
    6.4377   -2.4728    1.0835 H   0  0  0  0  0  0  0  0  0  0  0  0
    6.9485   -1.3239   -0.1558 H   0  0  0  0  0  0  0  0  0  0  0  0
   -0.8600    0.9875    0.8422 H   0  0  0  0  0  0  0  0  0  0  0  0
   -0.8321    1.9806   -0.6621 H   0  0  0  0  0  0  0  0  0  0  0  0
   -4.8817   -2.6880   -0.1171 H   0  0  0  0  0  0  0  0  0  0  0  0
   -2.8513    2.2722    0.4207 H   0  0  0  0  0  0  0  0  0  0  0  0
   -3.0100   -3.9151   -1.1067 H   0  0  0  0  0  0  0  0  0  0  0  0
   -2.4028   -2.8886   -2.4141 H   0  0  0  0  0  0  0  0  0  0  0  0
   -1.4177   -3.1651   -0.9630 H   0  0  0  0  0  0  0  0  0  0  0  0
   -6.6215   -0.9149    1.2069 H   0  0  0  0  0  0  0  0  0  0  0  0
   -4.8838    3.0078    1.5829 H   0  0  0  0  0  0  0  0  0  0  0  0
   -6.7568    1.4498    1.9750 H   0  0  0  0  0  0  0  0  0  0  0  0
  1 13  2  0  0  0  0
  2 14  2  0  0  0  0
  3 15  2  0  0  0  0
  4 17  2  0  0  0  0
  5  8  1  0  0  0  0
  5 13  1  0  0  0  0
  5 14  1  0  0  0  0
  6 13  1  0  0  0  0
  6 15  1  0  0  0  0
  6 16  1  0  0  0  0
  7 20  1  0  0  0  0
  7 21  1  0  0  0  0
  7 38  1  0  0  0  0
  8  9  1  0  0  0  0
  8 10  1  0  0  0  0
  8 27  1  0  0  0  0
  9 11  1  0  0  0  0
  9 28  1  0  0  0  0
  9 29  1  0  0  0  0
 10 12  1  0  0  0  0
 10 30  1  0  0  0  0
 10 31  1  0  0  0  0
 11 12  1  0  0  0  0
 11 32  1  0  0  0  0
 11 33  1  0  0  0  0
 12 34  1  0  0  0  0
 12 35  1  0  0  0  0
 14 15  1  0  0  0  0
 16 17  1  0  0  0  0
 16 36  1  0  0  0  0
 16 37  1  0  0  0  0
 17 18  1  0  0  0  0
 18 19  1  0  0  0  0
 18 20  2  0  0  0  0
 19 21  1  0  0  0  0
 19 22  2  0  0  0  0
 20 23  1  0  0  0  0
 21 24  2  0  0  0  0
 22 25  1  0  0  0  0
 22 39  1  0  0  0  0
 23 40  1  0  0  0  0
 23 41  1  0  0  0  0
 23 42  1  0  0  0  0
 24 26  1  0  0  0  0
 24 43  1  0  0  0  0
 25 26  2  0  0  0  0
 25 44  1  0  0  0  0
 26 45  1  0  0  0  0
M  END
> <PUBCHEM_COMPOUND_CID>
2573043

> <PUBCHEM_CONFORMER_RMSD>
0.8

> <PUBCHEM_CONFORMER_DIVERSEORDER>
3
141
173
9
185
197
124
110
4
64
81
96
37
46
193
204
50
144
72
198
160
215
109
186
6
68
49
5
118
125
69
48
146
21
113
168
86
16
14
174
83
208
189
79
94
54
7
59
135
17
170
28
119
12
35
221
210
183
201
20
192
77
47
91
151
15
31
1
98
178
100
207
25
74
19
128
43
127
164
176
161
116
162
76
56
139
202
88
13
93
40
143
99
199
180
182
130
187
45
117
78
172
184
29
129
58
102
156
106
166
108
60
70
121
52
200
211
114
112
57
104
67
80
203
10
62
8
181
155
165
101
38
196
142
195
191
147
2
115
123
190
167
22
23
66
214
131
32
75
158
136
30
133
175
205
85
154
153
33
55
219
163
27
150
213
61
188
149
122
63
132
209
107
26
177
145
140
90
212
11
120
24
216
36
71
89
126
95
18
103
220
134
51
65
148
194
73
179
97
169
39
217
159
53
111
105
218
42
84
87
152
41
157
34
206
92
137
171
44
138
82

> <PUBCHEM_MMFF94_PARTIAL_CHARGES>
26
1 -0.57
13 0.69
14 0.63
15 0.63
16 0.36
17 0.6
18 -0.09
2 -0.57
20 -0.33
21 -0.15
22 -0.15
23 0.18
24 -0.15
25 -0.15
26 -0.15
3 -0.57
38 0.27
39 0.15
4 -0.57
43 0.15
44 0.15
45 0.15
5 -0.42
6 -0.42
7 0.03
8 0.3

> <PUBCHEM_EFFECTIVE_ROTOR_COUNT>
5.4

> <PUBCHEM_PHARMACOPHORE_FEATURES>
10
1 1 acceptor
1 2 acceptor
1 3 acceptor
1 4 acceptor
1 7 cation
1 7 donor
5 5 6 13 14 15 rings
5 7 18 19 20 21 rings
5 8 9 10 11 12 rings
6 19 21 22 24 25 26 rings

> <PUBCHEM_HEAVY_ATOM_COUNT>
26

> <PUBCHEM_ATOM_DEF_STEREO_COUNT>
0

> <PUBCHEM_ATOM_UDEF_STEREO_COUNT>
0

> <PUBCHEM_BOND_DEF_STEREO_COUNT>
0

> <PUBCHEM_BOND_UDEF_STEREO_COUNT>
0

> <PUBCHEM_ISOTOPIC_ATOM_COUNT>
0

> <PUBCHEM_COMPONENT_COUNT>
1

> <PUBCHEM_CACTVS_TAUTO_COUNT>
8

> <PUBCHEM_CONFORMER_ID>
002742F300000003

> <PUBCHEM_MMFF94_ENERGY>
44.6495

> <PUBCHEM_FEATURE_SELFOVERLAP>
50.844

> <PUBCHEM_SHAPE_FINGERPRINT>
10 15 17275101760194980265
10319926 262 17989212559423737798
10692045 39 17702675319499530559
11405975 8 18201716305474019600
12107183 9 18337677399660191577
12236239 1 18261117391574665289
12422481 6 18341890732660697534
12553582 1 17531514434660737626
12596602 18 18131066052207898290
12616971 3 18113056051517852540
12633257 1 18335423482390498471
13402501 40 16343703210070408001
13583140 156 17203316840872588122
13673619 4 15502381123316296621
13726171 33 17556892378611846873
13782708 43 15140679185004159265
13862211 1 17168136811580917546
13914758 101 17967810532252602405
14251764 30 15936415537003143009
14420673 8 18269280075299357486
14466204 15 17775287136333099177
14528608 73 10087638200166460354
14849402 71 18262800808676632320
14951699 99 17703223031367830976
15021287 119 18040155110613237157
15131766 46 17316497394361869501
15142383 8 18187922829114252468
15238133 3 18202571661064479152
15250474 111 18339639061226844718
15348495 7 17846770845552228554
15461852 350 17418084434626320605
16110190 28 18342736334132105256
17780758 139 18341323461653347003
1813 80 17821733793113926190
20028762 73 18040718073578577338
20554085 129 17560234709892870179
21033648 29 16558761113147521269
21403212 168 18336543812373558891
2303208 19 15285361734091429793
23522609 53 17242763933838602652
23559900 14 17416710023321417300
23569943 247 17825658959563578370
23622692 88 18335701616040849741
2838139 119 12031789171463882642
312425 54 18272640252138516754
351380 3 17894345562566275690
3633792 109 18188472641622545919
3737641 26 17751632165980214306
46194498 28 13912612675590428910
5104073 3 18337957903816005681
5364581 5 17630305661875237408
5385378 56 17773050665785454059
5924683 9 17631439224220175791
7226269 152 17203608151461284531
8863177 126 16226343602094984641
9981440 41 18201169750444885083

> <PUBCHEM_SHAPE_MULTIPOLES>
496.65
15.35
2.14
1.72
6.42
1.17
0.56
0.12
-8.8
-2.4
0.45
1.41
-0.51
-1.9

> <PUBCHEM_SHAPE_SELFOVERLAP>
1096.84

> <PUBCHEM_SHAPE_VOLUME>
268.4

> <PUBCHEM_COORDINATE_TYPE>
2
5
10

$$$$
