18561503
  -OEChem-01171812113D

 52 55  0     1  0  0  0  0  0999 V2000
   -3.5659    2.0640    2.3136 Cl  0  0  0  0  0  0  0  0  0  0  0  0
    2.4341    2.1320    0.4663 S   0  0  0  0  0  0  0  0  0  0  0  0
    3.4397    0.2732   -2.7647 O   0  0  0  0  0  0  0  0  0  0  0  0
    2.7012    3.4416   -0.1002 O   0  0  0  0  0  0  0  0  0  0  0  0
    3.2380    1.6295    1.5659 O   0  0  0  0  0  0  0  0  0  0  0  0
    3.2100   -1.7881    1.8996 O   0  0  0  0  0  0  0  0  0  0  0  0
   -2.7434    0.1352   -2.5288 O   0  0  0  0  0  0  0  0  0  0  0  0
   -4.8816    0.3204   -1.4327 O   0  0  0  0  0  0  0  0  0  0  0  0
    1.6981   -4.1701    0.7405 O   0  0  0  0  0  0  0  0  0  0  0  0
    2.3875    0.9737   -0.7759 N   0  0  2  0  0  0  0  0  0  0  0  0
    3.0495   -1.6358   -0.4391 N   0  0  0  0  0  0  0  0  0  0  0  0
    0.3145   -2.2822    0.9187 N   0  0  0  0  0  0  0  0  0  0  0  0
    3.6779    0.5297   -1.3694 C   0  0  1  0  0  0  0  0  0  0  0  0
    1.4922    1.2277   -1.9192 C   0  0  0  0  0  0  0  0  0  0  0  0
    2.0198    0.2545   -2.9469 C   0  0  0  0  0  0  0  0  0  0  0  0
    4.1459   -0.7457   -0.6933 C   0  0  0  0  0  0  0  0  0  0  0  0
    0.7449    2.1134    0.9869 C   0  0  0  0  0  0  0  0  0  0  0  0
    0.3346    1.2378    1.9923 C   0  0  0  0  0  0  0  0  0  0  0  0
   -0.1779    2.9737    0.3920 C   0  0  0  0  0  0  0  0  0  0  0  0
    2.6972   -2.0626    0.8266 C   0  0  0  0  0  0  0  0  0  0  0  0
   -0.9985    1.2225    2.4026 C   0  0  0  0  0  0  0  0  0  0  0  0
   -1.5108    2.9585    0.8022 C   0  0  0  0  0  0  0  0  0  0  0  0
   -1.9211    2.0829    1.8075 C   0  0  0  0  0  0  0  0  0  0  0  0
    1.5041   -2.9683    0.8305 C   0  0  0  0  0  0  0  0  0  0  0  0
   -0.9721   -2.9382    0.9171 C   0  0  0  0  0  0  0  0  0  0  0  0
   -2.0425   -2.0742    0.3154 C   0  0  0  0  0  0  0  0  0  0  0  0
   -2.8053   -0.6045   -1.3881 C   0  0  0  0  0  0  0  0  0  0  0  0
   -1.7910   -1.3858   -0.8738 C   0  0  0  0  0  0  0  0  0  0  0  0
   -4.0264   -0.4987   -0.7623 C   0  0  0  0  0  0  0  0  0  0  0  0
   -3.2900   -1.9661    0.9549 C   0  0  0  0  0  0  0  0  0  0  0  0
   -4.3003   -1.1681    0.4127 C   0  0  0  0  0  0  0  0  0  0  0  0
   -4.0625    0.7179   -2.5511 C   0  0  0  0  0  0  0  0  0  0  0  0
    4.4445    1.3092   -1.3161 H   0  0  0  0  0  0  0  0  0  0  0  0
    0.4444    1.0258   -1.6897 H   0  0  0  0  0  0  0  0  0  0  0  0
    1.6121    2.2552   -2.2781 H   0  0  0  0  0  0  0  0  0  0  0  0
    1.7729    0.5498   -3.9703 H   0  0  0  0  0  0  0  0  0  0  0  0
    1.6505   -0.7622   -2.7800 H   0  0  0  0  0  0  0  0  0  0  0  0
    4.8595   -1.2836   -1.3259 H   0  0  0  0  0  0  0  0  0  0  0  0
    4.6396   -0.5070    0.2545 H   0  0  0  0  0  0  0  0  0  0  0  0
    2.5406   -2.0061   -1.2358 H   0  0  0  0  0  0  0  0  0  0  0  0
    1.0362    0.5575    2.4665 H   0  0  0  0  0  0  0  0  0  0  0  0
    0.1183    3.6608   -0.3955 H   0  0  0  0  0  0  0  0  0  0  0  0
   -1.3046    0.5328    3.1849 H   0  0  0  0  0  0  0  0  0  0  0  0
   -2.2195    3.6327    0.3281 H   0  0  0  0  0  0  0  0  0  0  0  0
   -1.1986   -3.1738    1.9629 H   0  0  0  0  0  0  0  0  0  0  0  0
   -0.9059   -3.8841    0.3678 H   0  0  0  0  0  0  0  0  0  0  0  0
    0.3406   -1.2729    1.0244 H   0  0  0  0  0  0  0  0  0  0  0  0
   -0.8397   -1.4599   -1.3898 H   0  0  0  0  0  0  0  0  0  0  0  0
   -3.4824   -2.5037    1.8801 H   0  0  0  0  0  0  0  0  0  0  0  0
   -5.2631   -1.0812    0.9031 H   0  0  0  0  0  0  0  0  0  0  0  0
   -3.9634    1.8095   -2.5424 H   0  0  0  0  0  0  0  0  0  0  0  0
   -4.5638    0.4169   -3.4782 H   0  0  0  0  0  0  0  0  0  0  0  0
  1 23  1  0  0  0  0
  2  4  2  0  0  0  0
  2  5  2  0  0  0  0
  2 10  1  0  0  0  0
  2 17  1  0  0  0  0
  3 13  1  0  0  0  0
  3 15  1  0  0  0  0
  6 20  2  0  0  0  0
  7 27  1  0  0  0  0
  7 32  1  0  0  0  0
  8 29  1  0  0  0  0
  8 32  1  0  0  0  0
  9 24  2  0  0  0  0
 10 13  1  0  0  0  0
 10 14  1  0  0  0  0
 11 16  1  0  0  0  0
 11 20  1  0  0  0  0
 11 40  1  0  0  0  0
 12 24  1  0  0  0  0
 12 25  1  0  0  0  0
 12 47  1  0  0  0  0
 13 16  1  0  0  0  0
 13 33  1  0  0  0  0
 14 15  1  0  0  0  0
 14 34  1  0  0  0  0
 14 35  1  0  0  0  0
 15 36  1  0  0  0  0
 15 37  1  0  0  0  0
 16 38  1  0  0  0  0
 16 39  1  0  0  0  0
 17 18  2  0  0  0  0
 17 19  1  0  0  0  0
 18 21  1  0  0  0  0
 18 41  1  0  0  0  0
 19 22  2  0  0  0  0
 19 42  1  0  0  0  0
 20 24  1  0  0  0  0
 21 23  2  0  0  0  0
 21 43  1  0  0  0  0
 22 23  1  0  0  0  0
 22 44  1  0  0  0  0
 25 26  1  0  0  0  0
 25 45  1  0  0  0  0
 25 46  1  0  0  0  0
 26 28  2  0  0  0  0
 26 30  1  0  0  0  0
 27 28  1  0  0  0  0
 27 29  2  0  0  0  0
 28 48  1  0  0  0  0
 29 31  1  0  0  0  0
 30 31  2  0  0  0  0
 30 49  1  0  0  0  0
 31 50  1  0  0  0  0
 32 51  1  0  0  0  0
 32 52  1  0  0  0  0
M  END
> <PUBCHEM_COMPOUND_CID>
18561503

> <PUBCHEM_CONFORMER_RMSD>
1.4

> <PUBCHEM_CONFORMER_DIVERSEORDER>
1
64
148
141
165
139
10
61
75
46
59
89
93
57
84
47
94
71
55
163
2
15
110
38
60
106
118
8
63
27
124
96
119
101
40
76
97
142
41
178
39
13
184
140
103
3
44
50
9
156
91
86
54
35
85
113
67
138
185
152
170
58
116
181
174
134
79
114
122
190
160
127
51
192
136
166
194
115
153
162
56
117
29
154
129
151
123
111
12
30
49
102
92
4
21
149
182
193
112
14
135
24
32
45
37
95
72
104
164
125
186
18
187
109
87
82
188
179
90
48
43
69
172
180
133
132
31
62
137
147
20
99
66
157
73
121
7
68
70
155
42
171
77
195
26
80
131
144
36
52
78
81
146
107
25
130
158
183
28
53
33
23
34
65
88
159
189
169
105
22
176
100
98
6
161
168
145
173
74
16
19
11
108
150
143
83
191
177
175
5
17
126
167
120
128

> <PUBCHEM_MMFF94_PARTIAL_CHARGES>
41
1 -0.18
10 -0.85
11 -0.73
12 -0.73
13 0.64
14 0.36
15 0.28
16 0.3
17 -0.01
18 -0.15
19 -0.15
2 1.45
20 0.63
21 -0.15
22 -0.15
23 0.18
24 0.63
25 0.44
26 -0.14
27 0.08
28 -0.15
29 0.08
3 -0.56
30 -0.15
31 -0.15
32 0.56
4 -0.65
40 0.37
41 0.15
42 0.15
43 0.15
44 0.15
47 0.37
48 0.15
49 0.15
5 -0.65
50 0.15
6 -0.57
7 -0.36
8 -0.36
9 -0.57

> <PUBCHEM_EFFECTIVE_ROTOR_COUNT>
10.6

> <PUBCHEM_PHARMACOPHORE_FEATURES>
13
1 11 donor
1 12 donor
1 3 acceptor
1 4 acceptor
1 5 acceptor
1 6 acceptor
1 7 acceptor
1 8 acceptor
1 9 acceptor
5 3 10 13 14 15 rings
5 7 8 27 29 32 rings
6 17 18 19 21 22 23 rings
6 26 27 28 29 30 31 rings

> <PUBCHEM_HEAVY_ATOM_COUNT>
32

> <PUBCHEM_ATOM_DEF_STEREO_COUNT>
0

> <PUBCHEM_ATOM_UDEF_STEREO_COUNT>
1

> <PUBCHEM_BOND_DEF_STEREO_COUNT>
0

> <PUBCHEM_BOND_UDEF_STEREO_COUNT>
0

> <PUBCHEM_ISOTOPIC_ATOM_COUNT>
0

> <PUBCHEM_COMPONENT_COUNT>
1

> <PUBCHEM_CACTVS_TAUTO_COUNT>
4

> <PUBCHEM_CONFORMER_ID>
011B39DF00000001

> <PUBCHEM_MMFF94_ENERGY>
53.6955

> <PUBCHEM_FEATURE_SELFOVERLAP>
66.151

> <PUBCHEM_SHAPE_FINGERPRINT>
11513181 2 17842554037681470734
12156800 1 17057510436667840789
12422481 6 17317562700932974312
12788726 201 17775292668388587753
1361 2 15811974649302491244
13617811 41 17606110926435020599
14114206 34 18124629485327220524
14251757 17 18337951324089612009
20764821 26 18266737059564819251
21315764 21 17823127930887076589
35225 105 17126757631508352748
463206 1 18193856863320244328
469060 322 16883041344474342827
513532 50 17273106181556927277
6287921 2 12397121602375526129

> <PUBCHEM_SHAPE_MULTIPOLES>
608.24
7.95
4.25
2.82
2.37
0.61
-1.47
0.85
-3.04
-1.12
2.7
0.48
-0.6
-1.24

> <PUBCHEM_SHAPE_SELFOVERLAP>
1288.228

> <PUBCHEM_SHAPE_VOLUME>
342.8

> <PUBCHEM_COORDINATE_TYPE>
2
5
10

$$$$
