1451340
  -OEChem-01171811473D

 51 54  0     0  0  0  0  0  0999 V2000
   -2.5861   -0.7857    2.6708 S   0  0  0  0  0  0  0  0  0  0  0  0
   -3.2519    1.8583    1.2094 O   0  0  0  0  0  0  0  0  0  0  0  0
   -1.1850    3.9140   -1.9273 O   0  0  0  0  0  0  0  0  0  0  0  0
   -0.0633   -2.2790   -0.7577 N   0  0  0  0  0  0  0  0  0  0  0  0
   -0.3367   -1.4360    1.4830 N   0  0  0  0  0  0  0  0  0  0  0  0
   -0.9187    2.0857    1.0409 N   0  0  0  0  0  0  0  0  0  0  0  0
   -1.7892    3.2318   -0.8694 N   0  0  0  0  0  0  0  0  0  0  0  0
    0.2060    3.9014   -1.8078 N   0  0  0  0  0  0  0  0  0  0  0  0
    4.0540   -0.7082    0.4908 C   0  0  0  0  0  0  0  0  0  0  0  0
    4.7883    0.5536    0.0486 C   0  0  0  0  0  0  0  0  0  0  0  0
    4.7504   -1.7927   -0.3253 C   0  0  0  0  0  0  0  0  0  0  0  0
    6.2467    0.1168   -0.0438 C   0  0  0  0  0  0  0  0  0  0  0  0
    6.2221   -1.3916   -0.2963 C   0  0  0  0  0  0  0  0  0  0  0  0
    2.5562   -0.6453    0.2484 C   0  0  0  0  0  0  0  0  0  0  0  0
    1.8679   -1.9499    0.6538 C   0  0  0  0  0  0  0  0  0  0  0  0
    0.3765   -1.8832    0.4460 C   0  0  0  0  0  0  0  0  0  0  0  0
   -1.3927   -2.2203   -0.9504 C   0  0  0  0  0  0  0  0  0  0  0  0
   -1.6630   -1.3899    1.2567 C   0  0  0  0  0  0  0  0  0  0  0  0
   -2.2601   -1.7689    0.0576 C   0  0  0  0  0  0  0  0  0  0  0  0
   -1.9535   -2.6085   -2.1647 C   0  0  0  0  0  0  0  0  0  0  0  0
   -3.6485   -1.7118   -0.1550 C   0  0  0  0  0  0  0  0  0  0  0  0
   -3.3331   -2.5547   -2.3840 C   0  0  0  0  0  0  0  0  0  0  0  0
   -4.1819   -2.1058   -1.3782 C   0  0  0  0  0  0  0  0  0  0  0  0
   -1.8735    0.8675    2.8832 C   0  0  0  0  0  0  0  0  0  0  0  0
   -2.1100    1.6647    1.6187 C   0  0  0  0  0  0  0  0  0  0  0  0
   -0.7682    2.8251   -0.1389 C   0  0  0  0  0  0  0  0  0  0  0  0
    0.4358    3.2182   -0.6878 C   0  0  0  0  0  0  0  0  0  0  0  0
    1.8115    2.9942   -0.2212 C   0  0  0  0  0  0  0  0  0  0  0  0
    4.2475   -0.8787    1.5587 H   0  0  0  0  0  0  0  0  0  0  0  0
    4.4412    0.8830   -0.9383 H   0  0  0  0  0  0  0  0  0  0  0  0
    4.6517    1.3839    0.7482 H   0  0  0  0  0  0  0  0  0  0  0  0
    4.6059   -2.7954    0.0886 H   0  0  0  0  0  0  0  0  0  0  0  0
    4.3891   -1.7980   -1.3611 H   0  0  0  0  0  0  0  0  0  0  0  0
    6.7751    0.6550   -0.8372 H   0  0  0  0  0  0  0  0  0  0  0  0
    6.7672    0.3260    0.8980 H   0  0  0  0  0  0  0  0  0  0  0  0
    6.7449   -1.9119    0.5145 H   0  0  0  0  0  0  0  0  0  0  0  0
    6.7242   -1.6557   -1.2326 H   0  0  0  0  0  0  0  0  0  0  0  0
    2.3463   -0.4293   -0.8073 H   0  0  0  0  0  0  0  0  0  0  0  0
    2.1315    0.1845    0.8265 H   0  0  0  0  0  0  0  0  0  0  0  0
    2.2567   -2.7933    0.0718 H   0  0  0  0  0  0  0  0  0  0  0  0
    2.0732   -2.1726    1.7082 H   0  0  0  0  0  0  0  0  0  0  0  0
   -1.3108   -2.9635   -2.9682 H   0  0  0  0  0  0  0  0  0  0  0  0
   -4.3419   -1.3660    0.6058 H   0  0  0  0  0  0  0  0  0  0  0  0
   -3.7412   -2.8639   -3.3419 H   0  0  0  0  0  0  0  0  0  0  0  0
   -5.2535   -2.0628   -1.5468 H   0  0  0  0  0  0  0  0  0  0  0  0
   -0.8133    0.7876    3.1394 H   0  0  0  0  0  0  0  0  0  0  0  0
   -2.3793    1.3765    3.7096 H   0  0  0  0  0  0  0  0  0  0  0  0
   -0.0468    1.8350    1.4992 H   0  0  0  0  0  0  0  0  0  0  0  0
    2.4164    3.8996   -0.3409 H   0  0  0  0  0  0  0  0  0  0  0  0
    1.8514    2.7165    0.8358 H   0  0  0  0  0  0  0  0  0  0  0  0
    2.2810    2.1975   -0.8050 H   0  0  0  0  0  0  0  0  0  0  0  0
  1 18  1  0  0  0  0
  1 24  1  0  0  0  0
  2 25  2  0  0  0  0
  3  7  1  0  0  0  0
  3  8  1  0  0  0  0
  4 16  2  0  0  0  0
  4 17  1  0  0  0  0
  5 16  1  0  0  0  0
  5 18  2  0  0  0  0
  6 25  1  0  0  0  0
  6 26  1  0  0  0  0
  6 48  1  0  0  0  0
  7 26  2  0  0  0  0
  8 27  2  0  0  0  0
  9 10  1  0  0  0  0
  9 11  1  0  0  0  0
  9 14  1  0  0  0  0
  9 29  1  0  0  0  0
 10 12  1  0  0  0  0
 10 30  1  0  0  0  0
 10 31  1  0  0  0  0
 11 13  1  0  0  0  0
 11 32  1  0  0  0  0
 11 33  1  0  0  0  0
 12 13  1  0  0  0  0
 12 34  1  0  0  0  0
 12 35  1  0  0  0  0
 13 36  1  0  0  0  0
 13 37  1  0  0  0  0
 14 15  1  0  0  0  0
 14 38  1  0  0  0  0
 14 39  1  0  0  0  0
 15 16  1  0  0  0  0
 15 40  1  0  0  0  0
 15 41  1  0  0  0  0
 17 19  1  0  0  0  0
 17 20  2  0  0  0  0
 18 19  1  0  0  0  0
 19 21  2  0  0  0  0
 20 22  1  0  0  0  0
 20 42  1  0  0  0  0
 21 23  1  0  0  0  0
 21 43  1  0  0  0  0
 22 23  2  0  0  0  0
 22 44  1  0  0  0  0
 23 45  1  0  0  0  0
 24 25  1  0  0  0  0
 24 46  1  0  0  0  0
 24 47  1  0  0  0  0
 26 27  1  0  0  0  0
 27 28  1  0  0  0  0
 28 49  1  0  0  0  0
 28 50  1  0  0  0  0
 28 51  1  0  0  0  0
M  END
> <PUBCHEM_COMPOUND_CID>
1451340

> <PUBCHEM_CONFORMER_RMSD>
1.2

> <PUBCHEM_CONFORMER_DIVERSEORDER>
1
192
151
31
44
12
20
88
220
21
56
226
178
101
86
94
29
96
115
155
209
89
224
75
158
132
207
50
204
40
42
3
16
109
211
126
8
58
129
149
59
118
172
205
167
54
48
107
116
134
68
169
33
131
218
217
161
164
10
187
46
179
111
69
188
19
84
121
70
163
144
87
25
140
47
39
181
165
41
71
104
114
154
122
206
51
5
170
168
190
214
9
72
150
18
99
45
57
143
128
212
24
125
215
123
216
196
74
137
159
52
171
15
97
198
98
117
148
166
199
180
73
80
81
78
100
92
227
103
95
34
162
113
112
105
124
191
136
61
141
2
7
37
145
66
35
146
110
156
174
225
202
26
65
108
138
210
93
11
142
53
213
4
91
102
157
177
200
130
79
28
185
55
90
38
119
82
135
193
222
175
120
160
14
195
194
106
219
85
67
183
76
153
60
64
127
186
83
176
152
203
184
197
6
208
173
17
22
182
30
147
13
62
133
221
32
223
36
49
43
189
63
201
139
77
23
27

> <PUBCHEM_MMFF94_PARTIAL_CHARGES>
26
1 -0.33
15 0.14
16 0.48
17 0.31
18 0.41
2 -0.57
20 -0.15
21 -0.15
22 -0.15
23 -0.15
24 0.29
25 0.57
26 0.35
27 0.11
28 0.18
3 0.24
4 -0.62
42 0.15
43 0.15
44 0.15
45 0.15
48 0.37
5 -0.62
6 -0.49
7 -0.41
8 -0.41

> <PUBCHEM_EFFECTIVE_ROTOR_COUNT>
9

> <PUBCHEM_PHARMACOPHORE_FEATURES>
9
1 2 acceptor
1 5 acceptor
1 6 donor
1 8 acceptor
3 4 5 16 cation
5 3 7 8 26 27 rings
5 9 10 11 12 13 rings
6 17 19 20 21 22 23 rings
6 4 5 16 17 18 19 rings

> <PUBCHEM_HEAVY_ATOM_COUNT>
28

> <PUBCHEM_ATOM_DEF_STEREO_COUNT>
0

> <PUBCHEM_ATOM_UDEF_STEREO_COUNT>
0

> <PUBCHEM_BOND_DEF_STEREO_COUNT>
0

> <PUBCHEM_BOND_UDEF_STEREO_COUNT>
0

> <PUBCHEM_ISOTOPIC_ATOM_COUNT>
0

> <PUBCHEM_COMPONENT_COUNT>
1

> <PUBCHEM_CACTVS_TAUTO_COUNT>
9

> <PUBCHEM_CONFORMER_ID>
0016254C00000001

> <PUBCHEM_MMFF94_ENERGY>
58.2286

> <PUBCHEM_FEATURE_SELFOVERLAP>
45.704

> <PUBCHEM_SHAPE_FINGERPRINT>
10483366 6 18265031597340799629
10670039 82 18263662748788287614
10871710 139 18409730642679925234
11045515 52 18338786926867066727
11513181 2 17987535856342748028
12156800 1 17684600507906073433
12166972 35 18127401478789899199
12422481 6 18124346902390872481
12788726 201 18115570592067384098
1361 2 17834386831340930501
13761468 95 17908448869878604512
13911987 19 17968945322299246766
13994607 96 17896611591226628940
14020679 6 11674882177849297846
14142880 1 18342183215564358147
14840074 17 18336840679722280897
15324884 4 17332292660826338739
15444296 7 18343310271429332725
161222 619 17471596333599334872
17492 54 18119506770923062597
21304303 64 18334293206180915231
21315764 21 17757542328778956421
22907989 373 17987221245160948859
238 59 16898481322485626797
26353 1 18195222602680034071
4046055 25 18129369552753015143
445580 44 18264468677256619666
469060 322 18407476665344130026
497634 4 17489593381036370626
5081480 168 17979879956815350983
5171179 24 18271230738482685960
54076057 255 17681515270658901503
9862522 239 18195530285995655866
9925002 15 17845102942168423611

> <PUBCHEM_SHAPE_MULTIPOLES>
543.43
9.58
5.04
2.32
18.41
5.53
0.56
-6.55
-0.94
-2.32
-3.27
-3.26
0.3
-1.92

> <PUBCHEM_SHAPE_SELFOVERLAP>
1150.641

> <PUBCHEM_SHAPE_VOLUME>
306

> <PUBCHEM_COORDINATE_TYPE>
2
5
10

$$$$
