2850825
  -OEChem-01171811433D

 46 49  0     0  0  0  0  0  0999 V2000
    2.2310    2.4123    0.7934 O   0  0  0  0  0  0  0  0  0  0  0  0
    1.0994   -2.3412   -1.3544 O   0  0  0  0  0  0  0  0  0  0  0  0
   -2.9226   -2.2859    2.6712 O   0  0  0  0  0  0  0  0  0  0  0  0
   -0.2759    2.0640   -0.1534 N   0  0  0  0  0  0  0  0  0  0  0  0
   -0.8927   -0.5125   -1.3200 N   0  0  0  0  0  0  0  0  0  0  0  0
   -0.6609    2.6430    1.1348 C   0  0  0  0  0  0  0  0  0  0  0  0
   -0.8253    2.7366   -1.3319 C   0  0  0  0  0  0  0  0  0  0  0  0
   -2.1832    2.6725    1.2578 C   0  0  0  0  0  0  0  0  0  0  0  0
   -2.3502    2.7684   -1.2495 C   0  0  0  0  0  0  0  0  0  0  0  0
   -2.8228    3.3834    0.0664 C   0  0  0  0  0  0  0  0  0  0  0  0
    0.6089    1.0298   -0.2514 C   0  0  0  0  0  0  0  0  0  0  0  0
    0.3235   -0.1693   -0.7933 C   0  0  0  0  0  0  0  0  0  0  0  0
    1.9656    1.3203    0.3006 C   0  0  0  0  0  0  0  0  0  0  0  0
    2.9895    0.2647    0.2436 C   0  0  0  0  0  0  0  0  0  0  0  0
    1.3541   -1.2477   -0.8592 C   0  0  0  0  0  0  0  0  0  0  0  0
    2.6944   -0.9747   -0.3158 C   0  0  0  0  0  0  0  0  0  0  0  0
    4.2691    0.5126    0.7572 C   0  0  0  0  0  0  0  0  0  0  0  0
    3.6777   -1.9712   -0.3640 C   0  0  0  0  0  0  0  0  0  0  0  0
   -1.9827   -1.0962   -0.6696 C   0  0  0  0  0  0  0  0  0  0  0  0
    5.2466   -0.4816    0.7079 C   0  0  0  0  0  0  0  0  0  0  0  0
    4.9512   -1.7220    0.1479 C   0  0  0  0  0  0  0  0  0  0  0  0
   -1.9131   -1.4057    0.6956 C   0  0  0  0  0  0  0  0  0  0  0  0
   -3.1615   -1.3806   -1.3727 C   0  0  0  0  0  0  0  0  0  0  0  0
   -3.0013   -1.9883    1.3455 C   0  0  0  0  0  0  0  0  0  0  0  0
   -4.2496   -1.9634   -0.7229 C   0  0  0  0  0  0  0  0  0  0  0  0
   -4.1695   -2.2671    0.6361 C   0  0  0  0  0  0  0  0  0  0  0  0
   -0.2565    3.6592    1.2155 H   0  0  0  0  0  0  0  0  0  0  0  0
   -0.2536    2.0619    1.9714 H   0  0  0  0  0  0  0  0  0  0  0  0
   -0.5199    2.2396   -2.2605 H   0  0  0  0  0  0  0  0  0  0  0  0
   -0.4301    3.7590   -1.3777 H   0  0  0  0  0  0  0  0  0  0  0  0
   -2.4710    3.1743    2.1881 H   0  0  0  0  0  0  0  0  0  0  0  0
   -2.5673    1.6466    1.3128 H   0  0  0  0  0  0  0  0  0  0  0  0
   -2.7521    1.7535   -1.3365 H   0  0  0  0  0  0  0  0  0  0  0  0
   -2.7527    3.3434   -2.0909 H   0  0  0  0  0  0  0  0  0  0  0  0
   -3.9143    3.3198    0.1366 H   0  0  0  0  0  0  0  0  0  0  0  0
   -2.5588    4.4478    0.0897 H   0  0  0  0  0  0  0  0  0  0  0  0
   -0.8989   -0.6131   -2.3306 H   0  0  0  0  0  0  0  0  0  0  0  0
    4.5243    1.4721    1.1992 H   0  0  0  0  0  0  0  0  0  0  0  0
    3.4722   -2.9471   -0.7957 H   0  0  0  0  0  0  0  0  0  0  0  0
    6.2382   -0.2878    1.1064 H   0  0  0  0  0  0  0  0  0  0  0  0
    5.7124   -2.4958    0.1097 H   0  0  0  0  0  0  0  0  0  0  0  0
   -1.0163   -1.2004    1.2753 H   0  0  0  0  0  0  0  0  0  0  0  0
   -3.2394   -1.1480   -2.4321 H   0  0  0  0  0  0  0  0  0  0  0  0
   -5.1593   -2.1800   -1.2751 H   0  0  0  0  0  0  0  0  0  0  0  0
   -5.0243   -2.7208    1.1306 H   0  0  0  0  0  0  0  0  0  0  0  0
   -3.7640   -2.6824    2.9556 H   0  0  0  0  0  0  0  0  0  0  0  0
  1 13  2  0  0  0  0
  2 15  2  0  0  0  0
  3 24  1  0  0  0  0
  3 46  1  0  0  0  0
  4  6  1  0  0  0  0
  4  7  1  0  0  0  0
  4 11  1  0  0  0  0
  5 12  1  0  0  0  0
  5 19  1  0  0  0  0
  5 37  1  0  0  0  0
  6  8  1  0  0  0  0
  6 27  1  0  0  0  0
  6 28  1  0  0  0  0
  7  9  1  0  0  0  0
  7 29  1  0  0  0  0
  7 30  1  0  0  0  0
  8 10  1  0  0  0  0
  8 31  1  0  0  0  0
  8 32  1  0  0  0  0
  9 10  1  0  0  0  0
  9 33  1  0  0  0  0
  9 34  1  0  0  0  0
 10 35  1  0  0  0  0
 10 36  1  0  0  0  0
 11 12  2  0  0  0  0
 11 13  1  0  0  0  0
 12 15  1  0  0  0  0
 13 14  1  0  0  0  0
 14 16  1  0  0  0  0
 14 17  2  0  0  0  0
 15 16  1  0  0  0  0
 16 18  2  0  0  0  0
 17 20  1  0  0  0  0
 17 38  1  0  0  0  0
 18 21  1  0  0  0  0
 18 39  1  0  0  0  0
 19 22  2  0  0  0  0
 19 23  1  0  0  0  0
 20 21  2  0  0  0  0
 20 40  1  0  0  0  0
 21 41  1  0  0  0  0
 22 24  1  0  0  0  0
 22 42  1  0  0  0  0
 23 25  2  0  0  0  0
 23 43  1  0  0  0  0
 24 26  2  0  0  0  0
 25 26  1  0  0  0  0
 25 44  1  0  0  0  0
 26 45  1  0  0  0  0
M  END
> <PUBCHEM_COMPOUND_CID>
2850825

> <PUBCHEM_CONFORMER_RMSD>
0.8

> <PUBCHEM_CONFORMER_DIVERSEORDER>
2
13
9
16
15
18
1
3
10
4
14
17
5
12
11
8
7
6

> <PUBCHEM_MMFF94_PARTIAL_CHARGES>
33
1 -0.57
11 0.11
12 0.11
13 0.47
14 0.09
15 0.47
16 0.09
17 -0.15
18 -0.15
19 0.1
2 -0.57
20 -0.15
21 -0.15
22 -0.15
23 -0.15
24 0.08
25 -0.15
26 -0.15
3 -0.53
37 0.4
38 0.15
39 0.15
4 -0.84
40 0.15
41 0.15
42 0.15
43 0.15
44 0.15
45 0.15
46 0.45
5 -0.6
6 0.37
7 0.37

> <PUBCHEM_EFFECTIVE_ROTOR_COUNT>
4.2

> <PUBCHEM_PHARMACOPHORE_FEATURES>
10
1 1 acceptor
1 2 acceptor
1 3 donor
1 4 cation
1 5 cation
1 5 donor
6 11 12 13 14 15 16 rings
6 14 16 17 18 20 21 rings
6 19 22 23 24 25 26 rings
6 4 6 7 8 9 10 rings

> <PUBCHEM_HEAVY_ATOM_COUNT>
26

> <PUBCHEM_ATOM_DEF_STEREO_COUNT>
0

> <PUBCHEM_ATOM_UDEF_STEREO_COUNT>
0

> <PUBCHEM_BOND_DEF_STEREO_COUNT>
0

> <PUBCHEM_BOND_UDEF_STEREO_COUNT>
0

> <PUBCHEM_ISOTOPIC_ATOM_COUNT>
0

> <PUBCHEM_COMPONENT_COUNT>
1

> <PUBCHEM_CACTVS_TAUTO_COUNT>
17

> <PUBCHEM_CONFORMER_ID>
002B800900000002

> <PUBCHEM_MMFF94_ENERGY>
90.9354

> <PUBCHEM_FEATURE_SELFOVERLAP>
50.769

> <PUBCHEM_SHAPE_FINGERPRINT>
104564 63 18341341066698133893
10688039 33 18334292110779749109
1100329 8 17470717810981589106
11582403 64 15668082138712337575
12422481 6 18127997264110508035
12553582 1 18269290112611164814
12633257 1 18200050450984774881
12788726 201 18335690655031129074
13134695 92 18124874822733646237
13140716 1 18127401264542024882
13544653 18 18337389447535155927
13583140 156 17315077649893283672
13965767 371 17199990749817024339
14223421 5 18411978074670125956
14790565 3 17256805027953672916
14866123 147 18118962490702100355
17357779 13 18339910602117532477
20600515 1 17169531103508972421
20739085 24 18196382626112482364
21049683 118 17834648536403596313
21236236 1 18340482279829542822
21641784 216 18261405485096343812
22182313 1 17917153784828888486
23175994 123 18187924049301540103
23558518 356 18335983090596047845
23559900 14 17168698760390779470
2748010 2 18129654198195350060
3027735 51 18335978667017175203
3380486 145 18123180470925337311
3383291 50 16899906285287910927
350125 39 18342734157021834728
469060 322 17386580055099284389
5104073 3 18268976619676441522
56638632 10 16483564546762294416
57527295 17 18046027598534548087
81228 2 18263094240440296629
9709674 26 18057599855025808630
9981440 41 17771602582595168622

> <PUBCHEM_SHAPE_MULTIPOLES>
507.5
8.66
4.11
1.53
7.24
2.48
0.43
-5.36
1.73
-4.26
0.4
-1.36
-0.39
1.15

> <PUBCHEM_SHAPE_SELFOVERLAP>
1117.642

> <PUBCHEM_SHAPE_VOLUME>
270.6

> <PUBCHEM_COORDINATE_TYPE>
2
5
10

$$$$
