356301
  -OEChem-01171812023D

 27 29  0     0  0  0  0  0  0999 V2000
   -2.4210   -2.7017   -0.3561 O   0  0  0  0  0  0  0  0  0  0  0  0
   -3.8393    2.6584    0.2026 O   0  5  0  0  0  0  0  0  0  0  0  0
   -4.7267    0.6840   -0.1626 O   0  0  0  0  0  0  0  0  0  0  0  0
    1.5312   -0.9697    0.3169 N   0  0  0  0  0  0  0  0  0  0  0  0
   -1.0652   -2.4882   -0.1756 N   0  0  0  0  0  0  0  0  0  0  0  0
   -3.1433   -1.5231   -0.2804 N   0  0  0  0  0  0  0  0  0  0  0  0
   -3.7238    1.4147    0.0478 N   0  3  0  0  0  0  0  0  0  0  0  0
    0.2435   -0.4202    0.2464 C   0  0  0  0  0  0  0  0  0  0  0  0
   -0.9241   -1.1705    0.0155 C   0  0  0  0  0  0  0  0  0  0  0  0
   -2.2450   -0.5572   -0.0511 C   0  0  0  0  0  0  0  0  0  0  0  0
   -2.4414    0.8266    0.1109 C   0  0  0  0  0  0  0  0  0  0  0  0
    0.0247    0.9603    0.4055 C   0  0  0  0  0  0  0  0  0  0  0  0
    2.7570   -0.3443    0.1050 C   0  0  0  0  0  0  0  0  0  0  0  0
   -1.2616    1.5577    0.3405 C   0  0  0  0  0  0  0  0  0  0  0  0
    3.8772   -0.6848    0.8798 C   0  0  0  0  0  0  0  0  0  0  0  0
    2.8970    0.6382   -0.8880 C   0  0  0  0  0  0  0  0  0  0  0  0
    5.1056   -0.0592    0.6671 C   0  0  0  0  0  0  0  0  0  0  0  0
    4.1254    1.2639   -1.1009 C   0  0  0  0  0  0  0  0  0  0  0  0
    5.2297    0.9152   -0.3232 C   0  0  0  0  0  0  0  0  0  0  0  0
    1.5709   -1.9812    0.3808 H   0  0  0  0  0  0  0  0  0  0  0  0
    0.8554    1.6303    0.6227 H   0  0  0  0  0  0  0  0  0  0  0  0
   -1.3106    2.6368    0.4864 H   0  0  0  0  0  0  0  0  0  0  0  0
    3.7952   -1.4427    1.6556 H   0  0  0  0  0  0  0  0  0  0  0  0
    2.0643    0.9124   -1.5312 H   0  0  0  0  0  0  0  0  0  0  0  0
    5.9655   -0.3308    1.2723 H   0  0  0  0  0  0  0  0  0  0  0  0
    4.2240    2.0178   -1.8765 H   0  0  0  0  0  0  0  0  0  0  0  0
    6.1865    1.4014   -0.4900 H   0  0  0  0  0  0  0  0  0  0  0  0
  1  5  1  0  0  0  0
  1  6  1  0  0  0  0
  2  7  1  0  0  0  0
  3  7  2  0  0  0  0
  4  8  1  0  0  0  0
  4 13  1  0  0  0  0
  4 20  1  0  0  0  0
  5  9  2  0  0  0  0
  6 10  2  0  0  0  0
  7 11  1  0  0  0  0
  8  9  1  0  0  0  0
  8 12  2  0  0  0  0
  9 10  1  0  0  0  0
 10 11  1  0  0  0  0
 11 14  2  0  0  0  0
 12 14  1  0  0  0  0
 12 21  1  0  0  0  0
 13 15  2  0  0  0  0
 13 16  1  0  0  0  0
 14 22  1  0  0  0  0
 15 17  1  0  0  0  0
 15 23  1  0  0  0  0
 16 18  2  0  0  0  0
 16 24  1  0  0  0  0
 17 19  2  0  0  0  0
 17 25  1  0  0  0  0
 18 19  1  0  0  0  0
 18 26  1  0  0  0  0
 19 27  1  0  0  0  0
M  CHG  2   2  -1   7   1
M  END
> <PUBCHEM_COMPOUND_CID>
356301

> <PUBCHEM_CONFORMER_RMSD>
0.6

> <PUBCHEM_CONFORMER_DIVERSEORDER>
1
3
5
6
4
2
7

> <PUBCHEM_MMFF94_PARTIAL_CHARGES>
27
1 0.24
10 0.29
11 0.13
12 -0.15
13 0.1
14 -0.15
15 -0.15
16 -0.15
17 -0.15
18 -0.15
19 -0.15
2 -0.52
20 0.4
21 0.15
22 0.15
23 0.15
24 0.15
25 0.15
26 0.15
27 0.15
3 -0.52
4 -0.6
5 -0.41
6 -0.41
7 0.91
8 0.1
9 0.29

> <PUBCHEM_EFFECTIVE_ROTOR_COUNT>
3

> <PUBCHEM_PHARMACOPHORE_FEATURES>
10
1 2 acceptor
1 2 anion
1 3 acceptor
1 4 cation
1 4 donor
1 5 acceptor
1 6 acceptor
5 1 5 6 9 10 rings
6 13 15 16 17 18 19 rings
6 8 9 10 11 12 14 rings

> <PUBCHEM_HEAVY_ATOM_COUNT>
19

> <PUBCHEM_ATOM_DEF_STEREO_COUNT>
0

> <PUBCHEM_ATOM_UDEF_STEREO_COUNT>
0

> <PUBCHEM_BOND_DEF_STEREO_COUNT>
0

> <PUBCHEM_BOND_UDEF_STEREO_COUNT>
0

> <PUBCHEM_ISOTOPIC_ATOM_COUNT>
0

> <PUBCHEM_COMPONENT_COUNT>
1

> <PUBCHEM_CACTVS_TAUTO_COUNT>
2

> <PUBCHEM_CONFORMER_ID>
00056FCD00000001

> <PUBCHEM_MMFF94_ENERGY>
71.9381

> <PUBCHEM_FEATURE_SELFOVERLAP>
51.008

> <PUBCHEM_SHAPE_FINGERPRINT>
10014705 185 18407759244095897288
10062212 137 18261108608155269090
10411042 1 17907576187990068711
10493431 412 18270126712738579001
10498660 4 18343589551229563608
10616163 171 18411702127475003126
11132069 177 18412546492100915416
12107183 9 18046617907339577674
12173636 292 18340200808752349237
12236239 1 18113334224034003714
12390115 104 17987250940981675801
12403814 3 17749105574016207109
12500047 106 18342452643015293866
13167823 11 18260828215805937066
13760787 19 18335139804391048210
14767858 380 18269536309675851589
14790565 3 18198069075503636561
15196674 1 18409449219733296056
15375358 24 17846498127913470724
15669948 3 18340483456397770550
16752209 62 18342164613660546395
1741750 31 18342179925223672865
17492 89 18407760348451839922
19050596 39 18187080663853408784
200 152 18187922949842679150
20279233 1 16917350338072499238
20645477 56 18413110554218783857
20645477 70 16128383623547331236
20715895 44 17973999557713078173
20871999 31 18341609364725547951
21267235 1 18336835289538252826
22224240 67 18342750585788142265
23227448 37 18410576214308498228
23402539 116 18413101780159624604
23402655 69 18334017203230079076
23557571 272 18202009862631388702
23559900 14 18202008686211386942
2838139 119 17024289865624678621
293599 30 18341334379782298017
3472631 163 18410018749318561828
350125 39 18410858789551119417
3545911 37 18412266112694195702
3759504 43 18113620080035865339
394222 165 17973443200776218491
4214541 1 18410573998579658990
474 4 17603590755156995936
5104073 3 18261107496133338584
559249 180 18409163282380887266
573450 72 18335692867298164298
59755656 215 18271249301473601878
633830 44 17530972384550967474
67856867 119 18262795306954849096
9709674 26 18412552024362294830

> <PUBCHEM_SHAPE_MULTIPOLES>
353.48
10.19
2.25
0.81
6.18
0.47
0.04
-3.43
0.31
-2.8
0.16
0.71
-0.07
-1.06

> <PUBCHEM_SHAPE_SELFOVERLAP>
777.068

> <PUBCHEM_SHAPE_VOLUME>
190.2

> <PUBCHEM_COORDINATE_TYPE>
2
5
10

$$$$
