2401181
  -OEChem-01171811463D

 34 35  0     0  0  0  0  0  0999 V2000
   -4.7164    0.5461   -0.9626 S   0  0  0  0  0  0  0  0  0  0  0  0
    6.8834   -2.4632   -1.2562 F   0  0  0  0  0  0  0  0  0  0  0  0
   -0.9665    0.8074    0.1495 O   0  0  0  0  0  0  0  0  0  0  0  0
    1.2309    0.2354    1.5955 O   0  0  0  0  0  0  0  0  0  0  0  0
   -2.0984    1.9188   -1.5067 O   0  0  0  0  0  0  0  0  0  0  0  0
   -7.3950   -1.7606    0.5894 O   0  5  0  0  0  0  0  0  0  0  0  0
   -7.4750   -0.2976   -1.0511 O   0  0  0  0  0  0  0  0  0  0  0  0
    2.5231    1.7711    0.4198 N   0  0  0  0  0  0  0  0  0  0  0  0
   -6.8334   -0.9024   -0.1473 N   0  3  0  0  0  0  0  0  0  0  0  0
    3.7650    1.5597    1.1275 C   0  0  0  0  0  0  0  0  0  0  0  0
    4.5983    0.4850    0.4915 C   0  0  0  0  0  0  0  0  0  0  0  0
    4.4421   -0.8356    0.8952 C   0  0  0  0  0  0  0  0  0  0  0  0
    5.5172    0.8218   -0.4955 C   0  0  0  0  0  0  0  0  0  0  0  0
    1.3561    1.0852    0.7179 C   0  0  0  0  0  0  0  0  0  0  0  0
    0.2136    1.5082   -0.1808 C   0  0  0  0  0  0  0  0  0  0  0  0
    5.2162   -1.8339    0.3035 C   0  0  0  0  0  0  0  0  0  0  0  0
    6.2911   -0.1764   -1.0872 C   0  0  0  0  0  0  0  0  0  0  0  0
   -3.2427    0.3117   -0.1592 C   0  0  0  0  0  0  0  0  0  0  0  0
    6.1407   -1.5044   -0.6877 C   0  0  0  0  0  0  0  0  0  0  0  0
   -3.2898   -0.6051    0.8372 C   0  0  0  0  0  0  0  0  0  0  0  0
   -2.0878    1.0982   -0.5949 C   0  0  0  0  0  0  0  0  0  0  0  0
   -5.4737   -0.6156    0.0420 C   0  0  0  0  0  0  0  0  0  0  0  0
   -4.5989   -1.1538    0.9601 C   0  0  0  0  0  0  0  0  0  0  0  0
    4.3056    2.5131    1.1358 H   0  0  0  0  0  0  0  0  0  0  0  0
    3.5501    1.3082    2.1730 H   0  0  0  0  0  0  0  0  0  0  0  0
    2.5217    2.4438   -0.3417 H   0  0  0  0  0  0  0  0  0  0  0  0
    3.7281   -1.1055    1.6680 H   0  0  0  0  0  0  0  0  0  0  0  0
    5.6414    1.8526   -0.8157 H   0  0  0  0  0  0  0  0  0  0  0  0
    0.0540    2.5853   -0.0536 H   0  0  0  0  0  0  0  0  0  0  0  0
    0.4944    1.2952   -1.2188 H   0  0  0  0  0  0  0  0  0  0  0  0
    5.0998   -2.8678    0.6147 H   0  0  0  0  0  0  0  0  0  0  0  0
    7.0105    0.0797   -1.8594 H   0  0  0  0  0  0  0  0  0  0  0  0
   -2.4548   -0.8918    1.4637 H   0  0  0  0  0  0  0  0  0  0  0  0
   -4.8720   -1.9058    1.6900 H   0  0  0  0  0  0  0  0  0  0  0  0
  1 18  1  0  0  0  0
  1 22  1  0  0  0  0
  2 19  1  0  0  0  0
  3 15  1  0  0  0  0
  3 21  1  0  0  0  0
  4 14  2  0  0  0  0
  5 21  2  0  0  0  0
  6  9  1  0  0  0  0
  7  9  2  0  0  0  0
  8 10  1  0  0  0  0
  8 14  1  0  0  0  0
  8 26  1  0  0  0  0
  9 22  1  0  0  0  0
 10 11  1  0  0  0  0
 10 24  1  0  0  0  0
 10 25  1  0  0  0  0
 11 12  2  0  0  0  0
 11 13  1  0  0  0  0
 12 16  1  0  0  0  0
 12 27  1  0  0  0  0
 13 17  2  0  0  0  0
 13 28  1  0  0  0  0
 14 15  1  0  0  0  0
 15 29  1  0  0  0  0
 15 30  1  0  0  0  0
 16 19  2  0  0  0  0
 16 31  1  0  0  0  0
 17 19  1  0  0  0  0
 17 32  1  0  0  0  0
 18 20  2  0  0  0  0
 18 21  1  0  0  0  0
 20 23  1  0  0  0  0
 20 33  1  0  0  0  0
 22 23  2  0  0  0  0
 23 34  1  0  0  0  0
M  CHG  2   6  -1   9   1
M  END
> <PUBCHEM_COMPOUND_CID>
2401181

> <PUBCHEM_CONFORMER_RMSD>
1

> <PUBCHEM_CONFORMER_DIVERSEORDER>
1
54
111
156
28
191
65
148
67
94
71
46
177
69
172
25
22
45
41
186
125
13
43
48
34
185
31
159
58
171
100
79
178
136
2
119
190
106
116
139
12
123
97
120
162
124
4
91
20
77
165
133
29
90
11
26
145
153
168
5
170
143
164
175
192
32
176
184
144
57
129
173
167
127
157
75
7
9
53
193
89
42
88
160
138
70
189
105
152
33
155
47
141
66
63
59
62
101
81
169
181
10
158
132
130
49
56
80
83
182
18
30
60
118
64
114
150
27
78
122
104
147
96
137
15
24
102
188
110
121
99
107
166
76
51
21
93
87
40
3
179
6
52
108
95
180
16
72
117
17
183
112
8
68
44
134
140
115
113
73
154
163
82
74
126
37
98
86
135
85
149
161
38
109
23
131
50
92
55
151
36
142
128
14
19
103
174
146
84
61
39
187
35

> <PUBCHEM_MMFF94_PARTIAL_CHARGES>
30
1 -0.08
10 0.44
11 -0.14
12 -0.15
13 -0.15
14 0.57
15 0.34
16 -0.15
17 -0.15
18 -0.05
19 0.19
2 -0.19
20 -0.15
21 0.81
22 0.12
23 -0.15
26 0.37
27 0.15
28 0.15
3 -0.43
31 0.15
32 0.15
33 0.15
34 0.15
4 -0.57
5 -0.57
6 -0.52
7 -0.52
8 -0.73
9 0.96

> <PUBCHEM_EFFECTIVE_ROTOR_COUNT>
8

> <PUBCHEM_PHARMACOPHORE_FEATURES>
8
1 4 acceptor
1 5 acceptor
1 6 acceptor
1 6 anion
1 7 acceptor
1 8 donor
5 1 18 20 22 23 rings
6 11 12 13 16 17 19 rings

> <PUBCHEM_HEAVY_ATOM_COUNT>
23

> <PUBCHEM_ATOM_DEF_STEREO_COUNT>
0

> <PUBCHEM_ATOM_UDEF_STEREO_COUNT>
0

> <PUBCHEM_BOND_DEF_STEREO_COUNT>
0

> <PUBCHEM_BOND_UDEF_STEREO_COUNT>
0

> <PUBCHEM_ISOTOPIC_ATOM_COUNT>
0

> <PUBCHEM_COMPONENT_COUNT>
1

> <PUBCHEM_CACTVS_TAUTO_COUNT>
2

> <PUBCHEM_CONFORMER_ID>
0024A39D00000001

> <PUBCHEM_MMFF94_ENERGY>
39.8652

> <PUBCHEM_FEATURE_SELFOVERLAP>
40.677

> <PUBCHEM_SHAPE_FINGERPRINT>
10 15 12679456516878900875
11524674 6 17561362911734008871
11646440 116 11167946896050174411
117089 54 17842570552643237142
125118 31 10087651411407319851
12596602 18 15482662515753421754
12778500 126 12247684838477740030
13073987 5 18060418002386924640
13533116 47 17988359364434274608
13668630 136 18343304734820940398
13673619 4 18411981355861895824
13685833 64 18341895203536542427
13782708 43 18271800246491809405
13914758 101 17632578224225455985
13955234 65 17917138520879654720
14216079 64 18411980265287965839
14251764 18 14979952601463633560
14251764 30 18273213109995673640
14528608 73 15936410039946371812
14556957 393 15068621548285876343
14598715 104 11095613243337728867
14617045 38 18335139799658569002
15183329 4 18186520986037352314
15348495 7 12823001054504710574
15352257 5 18413108376723547663
155225 6 9582360943517701394
15575132 122 14996273691799726447
16994733 274 12468624012008596999
17844677 252 18342740723663100128
21150785 3 14996282539674637113
21344244 181 18408609166874838922
21365058 113 18335426772515678964
21623969 137 18060421300778934758
21682296 61 18272656709888490790
22061861 79 18411414007972310900
221357 26 18333729117887483624
2215653 11 18335417980241954010
22765269 38 11025805305771044708
2297311 6 18113898260809693613
2303208 19 18410289215998504809
23522609 53 18055384467671611048
23559900 14 17896031200118458717
270888 7 11459012896253797990
2767999 5 11818996288146129412
2838139 119 8862947134613030395
28498 318 18342173363320876509
2916195 48 10231762184367038905
3004659 81 17385722529996867845
3089732 80 18410857650952347082
312425 54 13398622832571543260
33382 64 18272652337980808336
33532 11 18201438103700400687
335352 9 17531235190043197663
3472631 163 13407092400831620802
34797466 226 17967533514740197844
437815 12 18409729578018919113
439807 62 18260829263662081610
445580 126 11169910619906991516
46194498 28 18114180869916500052
465052 167 18059858355389415044
54039377 194 18059863801888404014
543368 44 12179846100340693359
59755656 215 18113614582129677435

> <PUBCHEM_SHAPE_MULTIPOLES>
430.6
22.07
1.98
1.24
9.77
0.34
-0.03
13.26
-5.15
-1.77
-0.18
-0.5
-0.03
2.09

> <PUBCHEM_SHAPE_SELFOVERLAP>
902.111

> <PUBCHEM_SHAPE_VOLUME>
244.4

> <PUBCHEM_COORDINATE_TYPE>
2
5
10

$$$$
