2765745
  -OEChem-01171812013D

 32 34  0     1  0  0  0  0  0999 V2000
   -5.4578   -1.3601   -0.0059 O   0  0  0  0  0  0  0  0  0  0  0  0
    0.6483    0.3616    0.8480 N   0  0  1  0  0  0  0  0  0  0  0  0
    5.4151   -0.9774   -0.3686 N   0  0  0  0  0  0  0  0  0  0  0  0
    1.5718    0.9183   -0.1492 C   0  0  1  0  0  0  0  0  0  0  0  0
    1.2079    1.7029    1.0582 C   0  0  0  0  0  0  0  0  0  0  0  0
    2.9019    0.2646   -0.2303 C   0  0  0  0  0  0  0  0  0  0  0  0
   -0.7258    0.1874    0.5464 C   0  0  0  0  0  0  0  0  0  0  0  0
   -1.4184    1.1779   -0.1498 C   0  0  0  0  0  0  0  0  0  0  0  0
   -1.3857   -0.9742    0.9474 C   0  0  0  0  0  0  0  0  0  0  0  0
    4.0714    1.0273   -0.2285 C   0  0  0  0  0  0  0  0  0  0  0  0
    3.0030   -1.1262   -0.3020 C   0  0  0  0  0  0  0  0  0  0  0  0
   -2.7710    1.0070   -0.4451 C   0  0  0  0  0  0  0  0  0  0  0  0
   -2.7382   -1.1453    0.6520 C   0  0  0  0  0  0  0  0  0  0  0  0
   -3.4308   -0.1546   -0.0442 C   0  0  0  0  0  0  0  0  0  0  0  0
    5.2873    0.3666   -0.2983 C   0  0  0  0  0  0  0  0  0  0  0  0
    4.2667   -1.6906   -0.3687 C   0  0  0  0  0  0  0  0  0  0  0  0
   -4.8413   -0.3324   -0.3510 C   0  0  0  0  0  0  0  0  0  0  0  0
   -5.6047    0.7472   -1.1105 C   0  0  0  0  0  0  0  0  0  0  0  0
    1.1153    1.2081   -1.0894 H   0  0  0  0  0  0  0  0  0  0  0  0
    1.8835    1.7336    1.9032 H   0  0  0  0  0  0  0  0  0  0  0  0
    0.5356    2.5431    0.9794 H   0  0  0  0  0  0  0  0  0  0  0  0
   -0.9506    2.0940   -0.4973 H   0  0  0  0  0  0  0  0  0  0  0  0
   -0.8547   -1.7520    1.4902 H   0  0  0  0  0  0  0  0  0  0  0  0
    4.0387    2.1106   -0.1747 H   0  0  0  0  0  0  0  0  0  0  0  0
    2.1231   -1.7611   -0.3113 H   0  0  0  0  0  0  0  0  0  0  0  0
   -3.2714    1.8007   -0.9911 H   0  0  0  0  0  0  0  0  0  0  0  0
   -3.2303   -2.0589    0.9751 H   0  0  0  0  0  0  0  0  0  0  0  0
    6.2208    0.9197   -0.2997 H   0  0  0  0  0  0  0  0  0  0  0  0
    4.3917   -2.7667   -0.4273 H   0  0  0  0  0  0  0  0  0  0  0  0
   -5.1702    0.8899   -2.1033 H   0  0  0  0  0  0  0  0  0  0  0  0
   -5.6072    1.6802   -0.5411 H   0  0  0  0  0  0  0  0  0  0  0  0
   -6.6437    0.4273   -1.2391 H   0  0  0  0  0  0  0  0  0  0  0  0
  1 17  2  0  0  0  0
  2  4  1  0  0  0  0
  2  5  1  0  0  0  0
  2  7  1  0  0  0  0
  3 15  2  0  0  0  0
  3 16  1  0  0  0  0
  4  5  1  0  0  0  0
  4  6  1  0  0  0  0
  4 19  1  0  0  0  0
  5 20  1  0  0  0  0
  5 21  1  0  0  0  0
  6 10  2  0  0  0  0
  6 11  1  0  0  0  0
  7  8  2  0  0  0  0
  7  9  1  0  0  0  0
  8 12  1  0  0  0  0
  8 22  1  0  0  0  0
  9 13  2  0  0  0  0
  9 23  1  0  0  0  0
 10 15  1  0  0  0  0
 10 24  1  0  0  0  0
 11 16  2  0  0  0  0
 11 25  1  0  0  0  0
 12 14  2  0  0  0  0
 12 26  1  0  0  0  0
 13 14  1  0  0  0  0
 13 27  1  0  0  0  0
 14 17  1  0  0  0  0
 15 28  1  0  0  0  0
 16 29  1  0  0  0  0
 17 18  1  0  0  0  0
 18 30  1  0  0  0  0
 18 31  1  0  0  0  0
 18 32  1  0  0  0  0
M  END
> <PUBCHEM_COMPOUND_CID>
2765745

> <PUBCHEM_CONFORMER_RMSD>
0.6

> <PUBCHEM_CONFORMER_DIVERSEORDER>
1
10
12
18
2
14
7
17
19
13
9
3
20
6
4
15
5
8
11
16

> <PUBCHEM_MMFF94_PARTIAL_CHARGES>
29
1 -0.57
10 -0.15
11 -0.15
12 -0.15
13 -0.15
14 0.09
15 0.16
16 0.16
17 0.42
18 0.06
19 0.1
2 -0.44
20 0.1
21 0.1
22 0.15
23 0.15
24 0.15
25 0.15
26 0.15
27 0.15
28 0.15
29 0.15
3 -0.62
4 0.1
5 -0.03
6 -0.03
7 0.1
8 -0.15
9 -0.15

> <PUBCHEM_EFFECTIVE_ROTOR_COUNT>
3.6

> <PUBCHEM_PHARMACOPHORE_FEATURES>
5
1 1 acceptor
1 2 cation
1 3 acceptor
6 3 6 10 11 15 16 rings
6 7 8 9 12 13 14 rings

> <PUBCHEM_HEAVY_ATOM_COUNT>
18

> <PUBCHEM_ATOM_DEF_STEREO_COUNT>
0

> <PUBCHEM_ATOM_UDEF_STEREO_COUNT>
1

> <PUBCHEM_BOND_DEF_STEREO_COUNT>
0

> <PUBCHEM_BOND_UDEF_STEREO_COUNT>
0

> <PUBCHEM_ISOTOPIC_ATOM_COUNT>
0

> <PUBCHEM_COMPONENT_COUNT>
1

> <PUBCHEM_CACTVS_TAUTO_COUNT>
2

> <PUBCHEM_CONFORMER_ID>
002A33B100000001

> <PUBCHEM_MMFF94_ENERGY>
66.5947

> <PUBCHEM_FEATURE_SELFOVERLAP>
25.371

> <PUBCHEM_SHAPE_FINGERPRINT>
10354089 29 9007055769069711838
10447042 23 18273492360675067446
106641 1 15625931071897703282
107951 10 17240205434742265555
10835480 77 18410287047109001404
10968037 39 18410015454861867364
12236239 1 15985106322817881872
12251169 10 11527943456750066112
12516196 113 17989486329577187984
12555020 224 18342733027418958583
12596602 18 15051727595016793198
12670543 26 18334570214397010493
12916748 109 17167865257277364829
12954195 1 18266456517034108349
13214271 11 9007052461902838961
13288520 33 18272091586897732981
13533116 47 16630810976603162294
13544592 145 18409444821454592201
13668630 136 17632582651650845294
13685833 64 18341617048896859091
14251752 14 17895748504943229077
14251764 18 17917717903245424993
14350574 20 18410575115250069977
14386348 63 18411140255220197794
14573314 32 18333730212982539069
15099037 51 18409166623469408307
15183329 4 18261390001532921237
15188451 53 14620496948944533045
15961568 22 17096371803664354156
17349148 13 16128659669205370149
1813 80 15913334593551130992
18222031 100 16630529535812018816
19784866 170 9583519828023277513
19784866 240 17989213633086199799
200 152 17917713500112662225
20369508 70 18059853995654893592
20374829 77 18409163307675502059
20645477 70 18341898463701946630
20871999 31 18260546684625685253
21250096 35 18202566163954323850
21267235 1 18272942604961516534
21285901 2 18187926123475046710
21637258 2 16773503461215090247
221357 26 18410568479446989693
2215653 11 18413100659062423045
22224240 67 15769484384025751734
22854114 59 8646771096876859209
23402539 116 18334853909703170637
23536379 177 18342740698108826865
23557571 272 18040150699998504500
23559900 14 18337949099011989088
2871803 45 18335704914750027090
29717793 49 18131636651619256276
3004659 81 18260830367753383250
314194 84 17918273155731533894
32948 21 18260828181087489517
347723 3 15574712487328508456
351380 3 17346596378515016390
4214541 1 18410294670548993917
465052 167 17846502564235022647
4921388 177 16878237453470812571
4990 188 18260545636774464585
5283173 99 18335135332782051676
542803 24 14764630828037338080
9709674 26 18189341332331792978

> <PUBCHEM_SHAPE_MULTIPOLES>
354.6
13.03
1.57
0.92
1.51
0.13
0.08
2.86
-4.07
-0.49
0.09
0.36
-0.09
0.83

> <PUBCHEM_SHAPE_SELFOVERLAP>
765.17

> <PUBCHEM_SHAPE_VOLUME>
195.1

> <PUBCHEM_COORDINATE_TYPE>
2
5
10

$$$$
