6382444
  -OEChem-01171811423D

 55 56  0     1  0  0  0  0  0999 V2000
   -1.0490   -1.4505   -1.0268 O   0  0  0  0  0  0  0  0  0  0  0  0
   -3.6181   -2.1954    0.4577 O   0  0  0  0  0  0  0  0  0  0  0  0
   -0.6315    2.8740    0.8998 O   0  0  0  0  0  0  0  0  0  0  0  0
   -4.4982   -1.8505   -1.6502 O   0  0  0  0  0  0  0  0  0  0  0  0
    1.2617   -0.4890   -0.6551 N   0  0  0  0  0  0  0  0  0  0  0  0
    6.2458   -2.6096    0.8064 N   0  0  0  0  0  0  0  0  0  0  0  0
   -3.5707    0.6999    0.5268 C   0  0  0  0  0  0  0  0  0  0  0  0
   -3.0655   -0.1968   -0.6341 C   0  0  1  0  0  0  0  0  0  0  0  0
   -2.8316    2.0550    0.4762 C   0  0  0  0  0  0  0  0  0  0  0  0
   -3.3727    0.0404    1.9091 C   0  0  0  0  0  0  0  0  0  0  0  0
   -5.0786    0.9942    0.3543 C   0  0  0  0  0  0  0  0  0  0  0  0
   -1.5580   -0.4145   -0.6006 C   0  0  0  0  0  0  0  0  0  0  0  0
   -0.7207    0.7069   -0.0836 C   0  0  0  0  0  0  0  0  0  0  0  0
   -1.3229    1.9455    0.4841 C   0  0  0  0  0  0  0  0  0  0  0  0
   -3.8177   -1.4976   -0.6964 C   0  0  0  0  0  0  0  0  0  0  0  0
    0.6141    0.5963   -0.1272 C   0  0  0  0  0  0  0  0  0  0  0  0
    1.4948    1.7142    0.3930 C   0  0  0  0  0  0  0  0  0  0  0  0
    1.8054    2.8047   -0.6412 C   0  0  0  0  0  0  0  0  0  0  0  0
    2.6321    3.9586   -0.0693 C   0  0  0  0  0  0  0  0  0  0  0  0
    2.5033   -1.0153   -0.2916 C   0  0  0  0  0  0  0  0  0  0  0  0
   -4.2814   -3.4613    0.5335 C   0  0  0  0  0  0  0  0  0  0  0  0
    2.8457    5.0531   -1.1038 C   0  0  0  0  0  0  0  0  0  0  0  0
    3.3026   -1.6705   -1.2385 C   0  0  0  0  0  0  0  0  0  0  0  0
    2.9678   -0.8968    1.0257 C   0  0  0  0  0  0  0  0  0  0  0  0
    4.5420   -2.1974   -0.8753 C   0  0  0  0  0  0  0  0  0  0  0  0
    4.2072   -1.4236    1.3888 C   0  0  0  0  0  0  0  0  0  0  0  0
    4.9943   -2.0739    0.4382 C   0  0  0  0  0  0  0  0  0  0  0  0
   -3.2612    0.3170   -1.5870 H   0  0  0  0  0  0  0  0  0  0  0  0
   -3.1022    2.6053   -0.4342 H   0  0  0  0  0  0  0  0  0  0  0  0
   -3.1265    2.6748    1.3324 H   0  0  0  0  0  0  0  0  0  0  0  0
   -2.3909   -0.4302    2.0198 H   0  0  0  0  0  0  0  0  0  0  0  0
   -4.1470   -0.6971    2.1425 H   0  0  0  0  0  0  0  0  0  0  0  0
   -3.4495    0.7949    2.7023 H   0  0  0  0  0  0  0  0  0  0  0  0
   -5.4329    1.6890    1.1247 H   0  0  0  0  0  0  0  0  0  0  0  0
   -5.6849    0.0854    0.4332 H   0  0  0  0  0  0  0  0  0  0  0  0
   -5.2838    1.4480   -0.6219 H   0  0  0  0  0  0  0  0  0  0  0  0
    2.4958    1.3542    0.6346 H   0  0  0  0  0  0  0  0  0  0  0  0
    1.2084    2.0859    1.3817 H   0  0  0  0  0  0  0  0  0  0  0  0
    2.3509    2.3580   -1.4832 H   0  0  0  0  0  0  0  0  0  0  0  0
    0.8766    3.2069   -1.0628 H   0  0  0  0  0  0  0  0  0  0  0  0
    0.7656   -1.0152   -1.3659 H   0  0  0  0  0  0  0  0  0  0  0  0
    2.1210    4.3846    0.8017 H   0  0  0  0  0  0  0  0  0  0  0  0
    3.6041    3.5857    0.2732 H   0  0  0  0  0  0  0  0  0  0  0  0
   -3.9265   -4.1229   -0.2625 H   0  0  0  0  0  0  0  0  0  0  0  0
   -4.0409   -3.9133    1.4994 H   0  0  0  0  0  0  0  0  0  0  0  0
   -5.3650   -3.3247    0.4695 H   0  0  0  0  0  0  0  0  0  0  0  0
    3.3763    4.6664   -1.9796 H   0  0  0  0  0  0  0  0  0  0  0  0
    1.8902    5.4707   -1.4368 H   0  0  0  0  0  0  0  0  0  0  0  0
    3.4413    5.8662   -0.6771 H   0  0  0  0  0  0  0  0  0  0  0  0
    2.9626   -1.7737   -2.2663 H   0  0  0  0  0  0  0  0  0  0  0  0
    2.3589   -0.4535    1.8101 H   0  0  0  0  0  0  0  0  0  0  0  0
    5.1458   -2.7023   -1.6250 H   0  0  0  0  0  0  0  0  0  0  0  0
    4.5429   -1.3336    2.4188 H   0  0  0  0  0  0  0  0  0  0  0  0
    6.5767   -2.5157    1.7574 H   0  0  0  0  0  0  0  0  0  0  0  0
    6.8193   -3.0766    0.1165 H   0  0  0  0  0  0  0  0  0  0  0  0
  1 12  2  0  0  0  0
  2 15  1  0  0  0  0
  2 21  1  0  0  0  0
  3 14  2  0  0  0  0
  4 15  2  0  0  0  0
  5 16  1  0  0  0  0
  5 20  1  0  0  0  0
  5 41  1  0  0  0  0
  6 27  1  0  0  0  0
  6 54  1  0  0  0  0
  6 55  1  0  0  0  0
  7  8  1  0  0  0  0
  7  9  1  0  0  0  0
  7 10  1  0  0  0  0
  7 11  1  0  0  0  0
  8 12  1  0  0  0  0
  8 15  1  0  0  0  0
  8 28  1  0  0  0  0
  9 14  1  0  0  0  0
  9 29  1  0  0  0  0
  9 30  1  0  0  0  0
 10 31  1  0  0  0  0
 10 32  1  0  0  0  0
 10 33  1  0  0  0  0
 11 34  1  0  0  0  0
 11 35  1  0  0  0  0
 11 36  1  0  0  0  0
 12 13  1  0  0  0  0
 13 14  1  0  0  0  0
 13 16  2  0  0  0  0
 16 17  1  0  0  0  0
 17 18  1  0  0  0  0
 17 37  1  0  0  0  0
 17 38  1  0  0  0  0
 18 19  1  0  0  0  0
 18 39  1  0  0  0  0
 18 40  1  0  0  0  0
 19 22  1  0  0  0  0
 19 42  1  0  0  0  0
 19 43  1  0  0  0  0
 20 23  2  0  0  0  0
 20 24  1  0  0  0  0
 21 44  1  0  0  0  0
 21 45  1  0  0  0  0
 21 46  1  0  0  0  0
 22 47  1  0  0  0  0
 22 48  1  0  0  0  0
 22 49  1  0  0  0  0
 23 25  1  0  0  0  0
 23 50  1  0  0  0  0
 24 26  2  0  0  0  0
 24 51  1  0  0  0  0
 25 27  2  0  0  0  0
 25 52  1  0  0  0  0
 26 27  1  0  0  0  0
 26 53  1  0  0  0  0
M  END
> <PUBCHEM_COMPOUND_CID>
6382444

> <PUBCHEM_CONFORMER_RMSD>
0.8

> <PUBCHEM_CONFORMER_DIVERSEORDER>
69
23
64
92
88
73
38
78
13
65
51
55
93
67
87
53
29
32
54
24
48
37
42
83
76
89
59
11
4
81
63
16
21
85
91
46
94
68
52
35
30
41
36
80
62
25
20
57
79
90
15
14
77
58
70
27
44
5
9
47
34
84
7
19
50
6
33
2
72
56
18
66
28
75
74
39
10
1
61
40
22
71
8
86
3
60
49
43
45
31
12
82
26
17

> <PUBCHEM_MMFF94_PARTIAL_CHARGES>
28
1 -0.57
12 0.49
13 0.03
14 0.49
15 0.66
16 -0.04
17 0.14
2 -0.43
20 0.1
21 0.28
23 -0.15
24 -0.15
25 -0.15
26 -0.15
27 0.1
3 -0.57
4 -0.57
41 0.4
5 -0.6
50 0.15
51 0.15
52 0.15
53 0.15
54 0.4
55 0.4
6 -0.9
8 0.12
9 0.06

> <PUBCHEM_EFFECTIVE_ROTOR_COUNT>
7.6

> <PUBCHEM_PHARMACOPHORE_FEATURES>
13
1 1 acceptor
1 13 anion
1 22 hydrophobe
1 3 acceptor
1 4 acceptor
1 5 cation
1 5 donor
1 6 cation
1 6 donor
1 8 anion
3 7 10 11 hydrophobe
6 20 23 24 25 26 27 rings
6 7 8 9 12 13 14 rings

> <PUBCHEM_HEAVY_ATOM_COUNT>
27

> <PUBCHEM_ATOM_DEF_STEREO_COUNT>
0

> <PUBCHEM_ATOM_UDEF_STEREO_COUNT>
1

> <PUBCHEM_BOND_DEF_STEREO_COUNT>
1

> <PUBCHEM_BOND_UDEF_STEREO_COUNT>
0

> <PUBCHEM_ISOTOPIC_ATOM_COUNT>
0

> <PUBCHEM_COMPONENT_COUNT>
1

> <PUBCHEM_CACTVS_TAUTO_COUNT>
32

> <PUBCHEM_CONFORMER_ID>
0061636C00000045

> <PUBCHEM_MMFF94_ENERGY>
106.8123

> <PUBCHEM_FEATURE_SELFOVERLAP>
65.982

> <PUBCHEM_SHAPE_FINGERPRINT>
10050765 1 18337675325676147685
1100329 8 18411705348800221369
11135609 12 18411135878906941147
11135926 11 18050564346392019229
11370993 144 16629124247876525970
11578080 2 17821996614921602972
11963148 33 17763176243128930927
12236239 1 17751089016020906974
12553582 1 18336544898103836755
12633257 1 18270415914266113331
12788726 201 17681549230453678760
13140716 1 18343308071915440993
13540713 5 18200599206625267549
140371 6 18128827343470465325
14347424 109 18268164209316664755
14790565 3 17330563558132227357
15042514 8 17979074886506904036
17492 89 18338234985199719979
1813 80 18337955580644789044
19319366 153 17764025066236637708
19591789 44 16899617714913132047
200 152 16443918146071263886
20286276 3 18336835289854419597
20600515 1 18128827335049420292
20739085 24 18342172263788097624
21033648 29 17558531522603902784
21360443 120 18118127111849085804
21796203 349 17976862806545426882
23366157 5 18261678185333451252
23559900 14 18411691106319539129
23566358 27 18337120062923285245
25147074 1 18202006577108280541
312423 11 18340495568268582559
3178227 256 18122642556890789937
335352 9 18341612560893515837
3383291 50 18341613694986993171
4280585 95 18336536119591272680
4409770 3 17611457537326147492
463206 1 18042122072549459050
5104073 3 18272652363297139843
5486654 36 18335146384175775851
67856867 119 18341046427562466100
9709674 26 18337391642458467123
9981440 41 17905045112069629752

> <PUBCHEM_SHAPE_MULTIPOLES>
522.21
11.27
4.98
1.29
2.81
5.33
0.1
-9.73
1.26
4.48
-0.76
-0.08
-0.32
-1.66

> <PUBCHEM_SHAPE_SELFOVERLAP>
1094.502

> <PUBCHEM_SHAPE_VOLUME>
292.8

> <PUBCHEM_COORDINATE_TYPE>
2
5
10

$$$$
