2308267
  -OEChem-01171811403D

 48 51  0     0  0  0  0  0  0999 V2000
    1.6985    1.3644    1.6522 S   0  0  0  0  0  0  0  0  0  0  0  0
    1.9522    0.4819    2.7857 O   0  0  0  0  0  0  0  0  0  0  0  0
    1.7868    2.8145    1.7986 O   0  0  0  0  0  0  0  0  0  0  0  0
   -5.0196    3.1187   -2.7512 O   0  0  0  0  0  0  0  0  0  0  0  0
   -2.0386    1.1540    0.5870 N   0  0  0  0  0  0  0  0  0  0  0  0
   -2.4970   -1.1604    0.0458 N   0  0  0  0  0  0  0  0  0  0  0  0
    0.2494   -1.4994    0.7390 N   0  0  0  0  0  0  0  0  0  0  0  0
   -1.0238    3.1938    1.2336 N   0  0  0  0  0  0  0  0  0  0  0  0
    0.1141    0.9839    1.1477 C   0  0  0  0  0  0  0  0  0  0  0  0
   -0.9423    1.8620    1.0154 C   0  0  0  0  0  0  0  0  0  0  0  0
   -1.6965   -0.1621    0.4444 C   0  0  0  0  0  0  0  0  0  0  0  0
   -0.3644   -0.2960    0.7864 C   0  0  0  0  0  0  0  0  0  0  0  0
   -3.3536    1.7001    0.3243 C   0  0  0  0  0  0  0  0  0  0  0  0
   -3.5489    2.1714   -1.1162 C   0  0  0  0  0  0  0  0  0  0  0  0
    2.8017    0.9235    0.3387 C   0  0  0  0  0  0  0  0  0  0  0  0
   -1.8857   -2.3531   -0.0001 C   0  0  0  0  0  0  0  0  0  0  0  0
   -0.5229   -2.5219    0.3435 C   0  0  0  0  0  0  0  0  0  0  0  0
   -4.9542    2.6885   -1.3976 C   0  0  0  0  0  0  0  0  0  0  0  0
    3.1039    1.8632   -0.6290 C   0  0  0  0  0  0  0  0  0  0  0  0
    3.3356   -0.3511    0.3090 C   0  0  0  0  0  0  0  0  0  0  0  0
   -2.6202   -3.4651   -0.4006 C   0  0  0  0  0  0  0  0  0  0  0  0
    0.0370   -3.7935    0.2697 C   0  0  0  0  0  0  0  0  0  0  0  0
    3.9718    1.5155   -1.6641 C   0  0  0  0  0  0  0  0  0  0  0  0
    4.2035   -0.6988   -0.7262 C   0  0  0  0  0  0  0  0  0  0  0  0
    4.5217    0.2345   -1.7126 C   0  0  0  0  0  0  0  0  0  0  0  0
   -2.0457   -4.7330   -0.4698 C   0  0  0  0  0  0  0  0  0  0  0  0
   -0.7114   -4.8979   -0.1333 C   0  0  0  0  0  0  0  0  0  0  0  0
    5.4487   -0.1377   -2.8204 C   0  0  0  0  0  0  0  0  0  0  0  0
   -3.5495    2.5097    1.0352 H   0  0  0  0  0  0  0  0  0  0  0  0
   -4.0842    0.9160    0.5592 H   0  0  0  0  0  0  0  0  0  0  0  0
   -3.3207    1.3523   -1.8109 H   0  0  0  0  0  0  0  0  0  0  0  0
   -2.8206    2.9574   -1.3550 H   0  0  0  0  0  0  0  0  0  0  0  0
   -1.8621    3.7403    1.0687 H   0  0  0  0  0  0  0  0  0  0  0  0
   -0.2226    3.7283    1.5555 H   0  0  0  0  0  0  0  0  0  0  0  0
   -5.1926    3.5421   -0.7560 H   0  0  0  0  0  0  0  0  0  0  0  0
   -5.7078    1.9111   -1.2383 H   0  0  0  0  0  0  0  0  0  0  0  0
    2.6795    2.8622   -0.6132 H   0  0  0  0  0  0  0  0  0  0  0  0
    3.1019   -1.0912    1.0676 H   0  0  0  0  0  0  0  0  0  0  0  0
   -3.6696   -3.3542   -0.6686 H   0  0  0  0  0  0  0  0  0  0  0  0
    1.0838   -3.9409    0.5302 H   0  0  0  0  0  0  0  0  0  0  0  0
    4.2116    2.2511   -2.4273 H   0  0  0  0  0  0  0  0  0  0  0  0
    4.6265   -1.6995   -0.7523 H   0  0  0  0  0  0  0  0  0  0  0  0
   -2.6404   -5.5847   -0.7854 H   0  0  0  0  0  0  0  0  0  0  0  0
   -0.2512   -5.8799   -0.1828 H   0  0  0  0  0  0  0  0  0  0  0  0
   -4.8366    2.3468   -3.3137 H   0  0  0  0  0  0  0  0  0  0  0  0
    6.4813    0.0906   -2.5385 H   0  0  0  0  0  0  0  0  0  0  0  0
    5.3764   -1.2053   -3.0542 H   0  0  0  0  0  0  0  0  0  0  0  0
    5.2064    0.4082   -3.7386 H   0  0  0  0  0  0  0  0  0  0  0  0
  1  2  2  0  0  0  0
  1  3  2  0  0  0  0
  1  9  1  0  0  0  0
  1 15  1  0  0  0  0
  4 18  1  0  0  0  0
  4 45  1  0  0  0  0
  5 10  1  0  0  0  0
  5 11  1  0  0  0  0
  5 13  1  0  0  0  0
  6 11  2  0  0  0  0
  6 16  1  0  0  0  0
  7 12  2  0  0  0  0
  7 17  1  0  0  0  0
  8 10  1  0  0  0  0
  8 33  1  0  0  0  0
  8 34  1  0  0  0  0
  9 10  2  0  0  0  0
  9 12  1  0  0  0  0
 11 12  1  0  0  0  0
 13 14  1  0  0  0  0
 13 29  1  0  0  0  0
 13 30  1  0  0  0  0
 14 18  1  0  0  0  0
 14 31  1  0  0  0  0
 14 32  1  0  0  0  0
 15 19  2  0  0  0  0
 15 20  1  0  0  0  0
 16 17  1  0  0  0  0
 16 21  2  0  0  0  0
 17 22  2  0  0  0  0
 18 35  1  0  0  0  0
 18 36  1  0  0  0  0
 19 23  1  0  0  0  0
 19 37  1  0  0  0  0
 20 24  2  0  0  0  0
 20 38  1  0  0  0  0
 21 26  1  0  0  0  0
 21 39  1  0  0  0  0
 22 27  1  0  0  0  0
 22 40  1  0  0  0  0
 23 25  2  0  0  0  0
 23 41  1  0  0  0  0
 24 25  1  0  0  0  0
 24 42  1  0  0  0  0
 25 28  1  0  0  0  0
 26 27  2  0  0  0  0
 26 43  1  0  0  0  0
 27 44  1  0  0  0  0
 28 46  1  0  0  0  0
 28 47  1  0  0  0  0
 28 48  1  0  0  0  0
M  END
> <PUBCHEM_COMPOUND_CID>
2308267

> <PUBCHEM_CONFORMER_RMSD>
0.8

> <PUBCHEM_CONFORMER_DIVERSEORDER>
3
23
32
6
31
16
17
30
34
21
28
10
26
9
13
14
12
19
5
7
25
8
15
18
4
1
33
24
22
27
11
29
20
2

> <PUBCHEM_MMFF94_PARTIAL_CHARGES>
38
1 1.37
10 -0.07
11 0.11
12 0.26
13 0.26
15 -0.01
16 0.31
17 0.31
18 0.28
19 -0.15
2 -0.65
20 -0.15
21 -0.15
22 -0.15
23 -0.15
24 -0.15
25 -0.14
26 -0.15
27 -0.15
28 0.14
3 -0.65
33 0.4
34 0.4
37 0.15
38 0.15
39 0.15
4 -0.68
40 0.15
41 0.15
42 0.15
43 0.15
44 0.15
45 0.4
5 0.05
6 -0.57
7 -0.57
8 -0.88
9 -0.06

> <PUBCHEM_EFFECTIVE_ROTOR_COUNT>
5

> <PUBCHEM_PHARMACOPHORE_FEATURES>
12
1 2 acceptor
1 3 acceptor
1 4 acceptor
1 4 donor
1 7 acceptor
1 8 cation
1 8 donor
3 5 6 11 cation
5 5 9 10 11 12 rings
6 15 19 20 23 24 25 rings
6 16 17 21 22 26 27 rings
6 6 7 11 12 16 17 rings

> <PUBCHEM_HEAVY_ATOM_COUNT>
28

> <PUBCHEM_ATOM_DEF_STEREO_COUNT>
0

> <PUBCHEM_ATOM_UDEF_STEREO_COUNT>
0

> <PUBCHEM_BOND_DEF_STEREO_COUNT>
0

> <PUBCHEM_BOND_UDEF_STEREO_COUNT>
0

> <PUBCHEM_ISOTOPIC_ATOM_COUNT>
0

> <PUBCHEM_COMPONENT_COUNT>
1

> <PUBCHEM_CACTVS_TAUTO_COUNT>
3

> <PUBCHEM_CONFORMER_ID>
002338AB00000003

> <PUBCHEM_MMFF94_ENERGY>
58.1585

> <PUBCHEM_FEATURE_SELFOVERLAP>
61.085

> <PUBCHEM_SHAPE_FINGERPRINT>
10190108 129 18127717962773144401
12160290 23 18263356048825153945
12553582 1 17834679674731882018
12788726 201 17971743634772415195
12895836 83 18187089446650761364
12895837 130 17605014661528519428
13257819 37 18334300847017451583
133893 2 17687754835204575305
13690498 29 18052283927086307838
13911987 19 18337681810824102973
14022347 108 17758388956716445419
14114211 68 18265337201491076309
14790565 3 18269855176268549961
14866123 147 17914646970620476730
14950920 106 11455058918958453692
15475509 35 12749508606588939053
15475509 8 17982463886461441843
15664445 248 17110438048521268481
16752209 62 18337380642989388363
16988056 13 17037511307917373053
19591789 44 18341618122596673891
20511986 3 18259704489711526856
20642791 178 17762346816154862379
20693207 138 17986121922674893916
20775438 99 17912896630003404661
21033650 10 17751352009462945710
21285901 2 17767675427692671815
21344244 181 17775273989907724471
21781051 124 18334867108327523755
21857420 4 17327987359553993357
22182313 1 17916014857743041312
22393880 68 18267603441232633036
22907989 373 18267028443094138669
23559900 14 17624137500396018890
25025965 108 16339777786688923238
25222932 49 13320961323434632879
26353 1 17613719636301921213
312425 83 18044115625186346236
340366 18 18188210884487080950
44802255 64 17970092018326473782
469060 322 11170774895395841504
58779409 8 18410569613370648479
9709674 26 17985554587691816778

> <PUBCHEM_SHAPE_MULTIPOLES>
542.54
8.76
5.81
2.12
5.38
6.55
0.59
-5.49
8.36
-8.18
1.06
1.27
-1.92
2.23

> <PUBCHEM_SHAPE_SELFOVERLAP>
1187.166

> <PUBCHEM_SHAPE_VOLUME>
297.2

> <PUBCHEM_COORDINATE_TYPE>
2
5
10

$$$$
