4420443
  -OEChem-01171812103D

 56 59  0     0  0  0  0  0  0999 V2000
   -1.2961   -2.8301   -0.3618 S   0  0  0  0  0  0  0  0  0  0  0  0
    4.8952    2.3343   -0.4685 O   0  0  0  0  0  0  0  0  0  0  0  0
   -1.0801    3.0755   -0.2733 O   0  0  0  0  0  0  0  0  0  0  0  0
    4.9459    1.7750    1.7475 O   0  0  0  0  0  0  0  0  0  0  0  0
   -3.8328   -1.4320    0.5653 O   0  0  0  0  0  0  0  0  0  0  0  0
   -2.2704   -3.7574    0.1816 O   0  0  0  0  0  0  0  0  0  0  0  0
   -1.4495   -2.3156   -1.7095 O   0  0  0  0  0  0  0  0  0  0  0  0
    0.3535    0.8511    0.2782 N   0  0  0  0  0  0  0  0  0  0  0  0
    2.9121    1.9595    0.6394 N   0  0  0  0  0  0  0  0  0  0  0  0
   -1.0627   -1.5499    0.7149 N   0  0  0  0  0  0  0  0  0  0  0  0
    1.1024    0.5223    1.4865 C   0  0  0  0  0  0  0  0  0  0  0  0
    1.1412    1.2050   -0.8980 C   0  0  0  0  0  0  0  0  0  0  0  0
    2.1054    1.6234    1.8153 C   0  0  0  0  0  0  0  0  0  0  0  0
    2.1465    2.3042   -0.5660 C   0  0  0  0  0  0  0  0  0  0  0  0
   -0.9978    0.7556    0.2289 C   0  0  0  0  0  0  0  0  0  0  0  0
   -1.7394   -0.3422    0.4272 C   0  0  0  0  0  0  0  0  0  0  0  0
   -1.7062    2.0379   -0.0793 C   0  0  0  0  0  0  0  0  0  0  0  0
   -3.1829    2.0387   -0.1459 C   0  0  0  0  0  0  0  0  0  0  0  0
    4.3057    2.0042    0.7229 C   0  0  0  0  0  0  0  0  0  0  0  0
   -3.2139   -0.3929    0.3720 C   0  0  0  0  0  0  0  0  0  0  0  0
   -3.9106    0.8687    0.0716 C   0  0  0  0  0  0  0  0  0  0  0  0
   -3.8579    3.2325   -0.4309 C   0  0  0  0  0  0  0  0  0  0  0  0
   -5.3089    0.8880    0.0053 C   0  0  0  0  0  0  0  0  0  0  0  0
   -5.2518    3.2497   -0.4964 C   0  0  0  0  0  0  0  0  0  0  0  0
    0.2858   -3.6165   -0.2740 C   0  0  0  0  0  0  0  0  0  0  0  0
   -5.9759    2.0796   -0.2787 C   0  0  0  0  0  0  0  0  0  0  0  0
    6.3259    2.4020   -0.4674 C   0  0  0  0  0  0  0  0  0  0  0  0
    1.2841   -3.2235   -1.1475 C   0  0  0  0  0  0  0  0  0  0  0  0
    0.4945   -4.6083    0.6678 C   0  0  0  0  0  0  0  0  0  0  0  0
    6.8028    2.7761   -1.8545 C   0  0  0  0  0  0  0  0  0  0  0  0
    2.5320   -3.8428   -1.0772 C   0  0  0  0  0  0  0  0  0  0  0  0
    1.7426   -5.2275    0.7384 C   0  0  0  0  0  0  0  0  0  0  0  0
    2.7612   -4.8447   -0.1342 C   0  0  0  0  0  0  0  0  0  0  0  0
    0.4428    0.3778    2.3510 H   0  0  0  0  0  0  0  0  0  0  0  0
    1.6533   -0.4128    1.3245 H   0  0  0  0  0  0  0  0  0  0  0  0
    1.6796    0.3089   -1.2324 H   0  0  0  0  0  0  0  0  0  0  0  0
    0.5126    1.5215   -1.7389 H   0  0  0  0  0  0  0  0  0  0  0  0
    1.5815    2.5394    2.1137 H   0  0  0  0  0  0  0  0  0  0  0  0
    2.7422    1.3173    2.6512 H   0  0  0  0  0  0  0  0  0  0  0  0
    2.8026    2.4773   -1.4232 H   0  0  0  0  0  0  0  0  0  0  0  0
    1.6314    3.2476   -0.3517 H   0  0  0  0  0  0  0  0  0  0  0  0
   -0.1048   -1.4447    1.0589 H   0  0  0  0  0  0  0  0  0  0  0  0
   -3.3177    4.1594   -0.6047 H   0  0  0  0  0  0  0  0  0  0  0  0
   -5.8946   -0.0122    0.1714 H   0  0  0  0  0  0  0  0  0  0  0  0
   -5.7727    4.1769   -0.7175 H   0  0  0  0  0  0  0  0  0  0  0  0
   -7.0608    2.0952   -0.3302 H   0  0  0  0  0  0  0  0  0  0  0  0
    6.7369    1.4263   -0.1855 H   0  0  0  0  0  0  0  0  0  0  0  0
    6.6546    3.1587    0.2536 H   0  0  0  0  0  0  0  0  0  0  0  0
    1.1277   -2.4393   -1.8817 H   0  0  0  0  0  0  0  0  0  0  0  0
   -0.2830   -4.9144    1.3608 H   0  0  0  0  0  0  0  0  0  0  0  0
    7.8942    2.8368   -1.8899 H   0  0  0  0  0  0  0  0  0  0  0  0
    6.4655    2.0382   -2.5899 H   0  0  0  0  0  0  0  0  0  0  0  0
    6.3846    3.7414   -2.1584 H   0  0  0  0  0  0  0  0  0  0  0  0
    3.3262   -3.5429   -1.7548 H   0  0  0  0  0  0  0  0  0  0  0  0
    1.9219   -6.0062    1.4740 H   0  0  0  0  0  0  0  0  0  0  0  0
    3.7333   -5.3259   -0.0785 H   0  0  0  0  0  0  0  0  0  0  0  0
  1  6  2  0  0  0  0
  1  7  2  0  0  0  0
  1 10  1  0  0  0  0
  1 25  1  0  0  0  0
  2 19  1  0  0  0  0
  2 27  1  0  0  0  0
  3 17  2  0  0  0  0
  4 19  2  0  0  0  0
  5 20  2  0  0  0  0
  8 11  1  0  0  0  0
  8 12  1  0  0  0  0
  8 15  1  0  0  0  0
  9 13  1  0  0  0  0
  9 14  1  0  0  0  0
  9 19  1  0  0  0  0
 10 16  1  0  0  0  0
 10 42  1  0  0  0  0
 11 13  1  0  0  0  0
 11 34  1  0  0  0  0
 11 35  1  0  0  0  0
 12 14  1  0  0  0  0
 12 36  1  0  0  0  0
 12 37  1  0  0  0  0
 13 38  1  0  0  0  0
 13 39  1  0  0  0  0
 14 40  1  0  0  0  0
 14 41  1  0  0  0  0
 15 16  2  0  0  0  0
 15 17  1  0  0  0  0
 16 20  1  0  0  0  0
 17 18  1  0  0  0  0
 18 21  1  0  0  0  0
 18 22  2  0  0  0  0
 20 21  1  0  0  0  0
 21 23  2  0  0  0  0
 22 24  1  0  0  0  0
 22 43  1  0  0  0  0
 23 26  1  0  0  0  0
 23 44  1  0  0  0  0
 24 26  2  0  0  0  0
 24 45  1  0  0  0  0
 25 28  2  0  0  0  0
 25 29  1  0  0  0  0
 26 46  1  0  0  0  0
 27 30  1  0  0  0  0
 27 47  1  0  0  0  0
 27 48  1  0  0  0  0
 28 31  1  0  0  0  0
 28 49  1  0  0  0  0
 29 32  2  0  0  0  0
 29 50  1  0  0  0  0
 30 51  1  0  0  0  0
 30 52  1  0  0  0  0
 30 53  1  0  0  0  0
 31 33  2  0  0  0  0
 31 54  1  0  0  0  0
 32 33  1  0  0  0  0
 32 55  1  0  0  0  0
 33 56  1  0  0  0  0
M  END
> <PUBCHEM_COMPOUND_CID>
4420443

> <PUBCHEM_CONFORMER_RMSD>
1

> <PUBCHEM_CONFORMER_DIVERSEORDER>
1
9
5
10
15
20
19
6
14
13
18
26
2
11
21
25
23
7
16
12
8
24
22
3
4
17

> <PUBCHEM_MMFF94_PARTIAL_CHARGES>
42
1 1.45
10 -0.75
11 0.37
12 0.37
13 0.3
14 0.3
15 0.11
16 0.21
17 0.47
18 0.09
19 0.78
2 -0.43
20 0.47
21 0.09
22 -0.15
23 -0.15
24 -0.15
25 -0.01
26 -0.15
27 0.28
28 -0.15
29 -0.15
3 -0.57
31 -0.15
32 -0.15
33 -0.15
4 -0.57
42 0.42
43 0.15
44 0.15
45 0.15
46 0.15
49 0.15
5 -0.57
50 0.15
54 0.15
55 0.15
56 0.15
6 -0.65
7 -0.65
8 -0.84
9 -0.66

> <PUBCHEM_EFFECTIVE_ROTOR_COUNT>
8.2

> <PUBCHEM_PHARMACOPHORE_FEATURES>
11
1 10 donor
1 3 acceptor
1 4 acceptor
1 5 acceptor
1 6 acceptor
1 7 acceptor
1 8 cation
6 15 16 17 18 20 21 rings
6 18 21 22 23 24 26 rings
6 25 28 29 31 32 33 rings
6 8 9 11 12 13 14 rings

> <PUBCHEM_HEAVY_ATOM_COUNT>
33

> <PUBCHEM_ATOM_DEF_STEREO_COUNT>
0

> <PUBCHEM_ATOM_UDEF_STEREO_COUNT>
0

> <PUBCHEM_BOND_DEF_STEREO_COUNT>
0

> <PUBCHEM_BOND_UDEF_STEREO_COUNT>
0

> <PUBCHEM_ISOTOPIC_ATOM_COUNT>
0

> <PUBCHEM_COMPONENT_COUNT>
1

> <PUBCHEM_CACTVS_TAUTO_COUNT>
3

> <PUBCHEM_CONFORMER_ID>
0043735B00000001

> <PUBCHEM_MMFF94_ENERGY>
84.7688

> <PUBCHEM_FEATURE_SELFOVERLAP>
55.866

> <PUBCHEM_SHAPE_FINGERPRINT>
10050765 1 18267299825911014189
107951 10 18342181123899564950
10940486 97 17974011940415042228
12236239 1 17530677731982395569
12522641 33 18409167702139332485
12788726 201 17684656819396000656
12977781 61 17969243169759329659
13540713 4 18043255640006489929
13757389 114 18119820354827436196
14251757 5 17977952603110191716
14394314 77 17185316439566331568
14659021 117 17691392432234090352
14725015 67 17909547603547932095
14849402 71 17043732315197024185
15230672 131 18409171022481251294
15400415 2 18410013273430834060
15439362 3 18264769857485722541
15927050 60 18341891896507274535
15961568 22 17548979957973190950
16719943 64 18338518672348000798
167882 2 18339360743335276723
20028762 73 17838899588360828319
20771845 165 18188774929077505669
21033648 29 18128524041581376456
21133410 230 17829087451709876490
22311459 1 18410853309494875769
23559900 14 17978219462387339505
23569943 247 14474474035592356724
24771750 20 18268149747818757517
3027735 51 18127119990843877271
3178227 256 17473562248633557177
3298306 158 18343299245536198858
4058900 60 18340219518052097848
508706 21 18054236689907380414
5265222 85 18266745860259120780
532947 4 18268990895061042739
5385378 56 18341337691302323393
6669772 16 18411983529083192615
6898599 12 18046634683630126540
9981440 41 18408602587195086953

> <PUBCHEM_SHAPE_MULTIPOLES>
632.82
11.84
7.61
1.27
1.76
9.99
-0.07
-16.28
2.6
8.39
0.83
1.53
-0.31
0.11

> <PUBCHEM_SHAPE_SELFOVERLAP>
1359.062

> <PUBCHEM_SHAPE_VOLUME>
348.1

> <PUBCHEM_COORDINATE_TYPE>
2
5
10

$$$$
