750789
  -OEChem-01171811393D

 29 30  0     0  0  0  0  0  0999 V2000
    2.6627   -0.9342   -0.9539 S   0  0  0  0  0  0  0  0  0  0  0  0
    1.8987    2.3832   -0.7522 O   0  0  0  0  0  0  0  0  0  0  0  0
   -1.7757    0.3316    2.6784 O   0  0  0  0  0  0  0  0  0  0  0  0
   -1.5071    2.0680    1.2525 O   0  0  0  0  0  0  0  0  0  0  0  0
   -0.1338    1.2504   -0.9997 N   0  0  0  0  0  0  0  0  0  0  0  0
   -0.8684    0.0766   -0.8085 C   0  0  0  0  0  0  0  0  0  0  0  0
   -1.5949   -0.1336    0.3636 C   0  0  0  0  0  0  0  0  0  0  0  0
    1.2496    1.3490   -0.5845 C   0  0  0  0  0  0  0  0  0  0  0  0
   -0.8664   -0.8932   -1.8112 C   0  0  0  0  0  0  0  0  0  0  0  0
   -0.7454    2.4549   -1.6413 C   0  0  0  0  0  0  0  0  0  0  0  0
    1.8821    0.1861    0.0476 C   0  0  0  0  0  0  0  0  0  0  0  0
   -2.3194   -1.3135    0.5329 C   0  0  0  0  0  0  0  0  0  0  0  0
   -1.5911   -2.0730   -1.6419 C   0  0  0  0  0  0  0  0  0  0  0  0
   -2.3175   -2.2832   -0.4700 C   0  0  0  0  0  0  0  0  0  0  0  0
    1.9233   -0.1147    1.3660 C   0  0  0  0  0  0  0  0  0  0  0  0
   -1.6180    0.8585    1.4313 C   0  0  0  0  0  0  0  0  0  0  0  0
    2.6325   -1.3311    1.5840 C   0  0  0  0  0  0  0  0  0  0  0  0
    3.0890   -1.8820    0.4069 C   0  0  0  0  0  0  0  0  0  0  0  0
   -0.3085   -0.7402   -2.7317 H   0  0  0  0  0  0  0  0  0  0  0  0
   -1.8358    2.3816   -1.6100 H   0  0  0  0  0  0  0  0  0  0  0  0
   -0.3992    2.4928   -2.6780 H   0  0  0  0  0  0  0  0  0  0  0  0
   -0.4147    3.3562   -1.1178 H   0  0  0  0  0  0  0  0  0  0  0  0
   -2.9038   -1.5008    1.4299 H   0  0  0  0  0  0  0  0  0  0  0  0
   -1.5907   -2.8273   -2.4233 H   0  0  0  0  0  0  0  0  0  0  0  0
   -2.8837   -3.2008   -0.3397 H   0  0  0  0  0  0  0  0  0  0  0  0
    1.4814    0.4853    2.1510 H   0  0  0  0  0  0  0  0  0  0  0  0
    2.7994   -1.7791    2.5549 H   0  0  0  0  0  0  0  0  0  0  0  0
    3.6522   -2.7959    0.2810 H   0  0  0  0  0  0  0  0  0  0  0  0
   -1.7850    1.0280    3.3694 H   0  0  0  0  0  0  0  0  0  0  0  0
  1 11  1  0  0  0  0
  1 18  1  0  0  0  0
  2  8  2  0  0  0  0
  3 16  1  0  0  0  0
  3 29  1  0  0  0  0
  4 16  2  0  0  0  0
  5  6  1  0  0  0  0
  5  8  1  0  0  0  0
  5 10  1  0  0  0  0
  6  7  1  0  0  0  0
  6  9  2  0  0  0  0
  7 12  2  0  0  0  0
  7 16  1  0  0  0  0
  8 11  1  0  0  0  0
  9 13  1  0  0  0  0
  9 19  1  0  0  0  0
 10 20  1  0  0  0  0
 10 21  1  0  0  0  0
 10 22  1  0  0  0  0
 11 15  2  0  0  0  0
 12 14  1  0  0  0  0
 12 23  1  0  0  0  0
 13 14  2  0  0  0  0
 13 24  1  0  0  0  0
 14 25  1  0  0  0  0
 15 17  1  0  0  0  0
 15 26  1  0  0  0  0
 17 18  2  0  0  0  0
 17 27  1  0  0  0  0
 18 28  1  0  0  0  0
M  END
> <PUBCHEM_COMPOUND_CID>
750789

> <PUBCHEM_CONFORMER_RMSD>
0.6

> <PUBCHEM_CONFORMER_DIVERSEORDER>
3
54
36
39
44
10
35
15
40
55
7
43
13
53
49
46
47
16
9
41
52
38
26
30
28
21
42
33
11
19
31
22
51
50
34
12
23
45
37
8
2
32
14
1
18
4
5
20
17
27
6
25
24
29
48

> <PUBCHEM_MMFF94_PARTIAL_CHARGES>
26
1 -0.08
10 0.3
11 -0.05
12 -0.15
13 -0.15
14 -0.15
15 -0.15
16 0.63
17 -0.15
18 -0.11
19 0.15
2 -0.57
23 0.15
24 0.15
25 0.15
26 0.15
27 0.15
28 0.15
29 0.5
3 -0.65
4 -0.57
5 -0.48
6 0.12
7 0.09
8 0.71
9 -0.15

> <PUBCHEM_EFFECTIVE_ROTOR_COUNT>
4

> <PUBCHEM_PHARMACOPHORE_FEATURES>
6
1 2 acceptor
1 3 acceptor
1 4 acceptor
3 3 4 16 anion
5 1 11 15 17 18 rings
6 6 7 9 12 13 14 rings

> <PUBCHEM_HEAVY_ATOM_COUNT>
18

> <PUBCHEM_ATOM_DEF_STEREO_COUNT>
0

> <PUBCHEM_ATOM_UDEF_STEREO_COUNT>
0

> <PUBCHEM_BOND_DEF_STEREO_COUNT>
0

> <PUBCHEM_BOND_UDEF_STEREO_COUNT>
0

> <PUBCHEM_ISOTOPIC_ATOM_COUNT>
0

> <PUBCHEM_COMPONENT_COUNT>
1

> <PUBCHEM_CACTVS_TAUTO_COUNT>
1

> <PUBCHEM_CONFORMER_ID>
000B74C500000003

> <PUBCHEM_MMFF94_ENERGY>
76.0947

> <PUBCHEM_FEATURE_SELFOVERLAP>
30.508

> <PUBCHEM_SHAPE_FINGERPRINT>
107951 10 16235629751023127506
11578080 2 17840272796236008465
11680611 10 18341347650750876383
12423570 1 12197199442689425988
13299463 15 15285362803675442970
13898156 1 18128834107806306797
14787075 74 16545802569402260217
14817 1 9147778082941540569
15076042 46 18060431221773547567
15852999 172 17629772171212949833
15881359 60 18269539564538056679
15906896 17 17389097841652204093
16945 1 18127155003253087783
18981168 100 11527665357818116410
21330990 113 16830421612839997470
21731516 1 18187085031529524834
22713034 7 18114185275872054026
22802520 49 14707206582888109218
23419403 2 16692102251091024877
23598294 1 17629512879636743667
23728640 28 17323765913165826426
25610 171 16702029732998959043
298252 57 17323199677388168413
427121 178 16483636878237570763
576247 118 13119440401633481913
5845 1 14081834476793311900
598444 67 17405158326437266126
6992083 37 18269565939858413706
81228 2 18045471193493671676

> <PUBCHEM_SHAPE_MULTIPOLES>
351.69
4.15
2.66
2.08
2.44
0.64
0.7
-2.29
0.87
-0.59
-0.92
-0.75
0.23
-0.94

> <PUBCHEM_SHAPE_SELFOVERLAP>
745.634

> <PUBCHEM_SHAPE_VOLUME>
197.9

> <PUBCHEM_COORDINATE_TYPE>
2
5
10

$$$$
