5767802
  -OEChem-01171812003D

 42 44  0     0  0  0  0  0  0999 V2000
    3.5136   -2.5077   -0.3869 S   0  0  0  0  0  0  0  0  0  0  0  0
   -5.1733    0.7672    0.7345 O   0  0  0  0  0  0  0  0  0  0  0  0
    4.5394    1.1944    0.2013 O   0  0  0  0  0  0  0  0  0  0  0  0
    4.0709   -0.4249    1.7722 O   0  0  0  0  0  0  0  0  0  0  0  0
   -0.4925    0.1271   -2.0610 N   0  0  0  0  0  0  0  0  0  0  0  0
    1.4822   -1.0968   -1.3804 N   0  0  0  0  0  0  0  0  0  0  0  0
   -0.0532   -1.6142    0.9481 N   0  0  0  0  0  0  0  0  0  0  0  0
    1.1688   -2.0899    0.8199 N   0  0  0  0  0  0  0  0  0  0  0  0
   -1.7865   -0.2226   -0.2635 C   0  0  0  0  0  0  0  0  0  0  0  0
   -1.7318    0.3975   -1.5174 C   0  0  0  0  0  0  0  0  0  0  0  0
   -0.5394   -0.8722   -0.0762 C   0  0  0  0  0  0  0  0  0  0  0  0
    0.2351   -0.6396   -1.1961 C   0  0  0  0  0  0  0  0  0  0  0  0
   -2.9604   -0.0967    0.5053 C   0  0  0  0  0  0  0  0  0  0  0  0
   -2.7998    1.1381   -2.0372 C   0  0  0  0  0  0  0  0  0  0  0  0
   -4.0347    0.6416   -0.0040 C   0  0  0  0  0  0  0  0  0  0  0  0
   -3.9534    1.2486   -1.2556 C   0  0  0  0  0  0  0  0  0  0  0  0
    3.8029    2.1978    0.9083 C   0  0  0  0  0  0  0  0  0  0  0  0
    1.8691   -1.8185   -0.3103 C   0  0  0  0  0  0  0  0  0  0  0  0
   -5.4970   -0.3083    1.6130 C   0  0  0  0  0  0  0  0  0  0  0  0
    4.1499    3.5660    0.3414 C   0  0  0  0  0  0  0  0  0  0  0  0
    2.3156    1.8989    0.7973 C   0  0  0  0  0  0  0  0  0  0  0  0
    4.5300   -1.0135   -0.5510 C   0  0  0  0  0  0  0  0  0  0  0  0
    4.3453   -0.0914    0.6279 C   0  0  0  0  0  0  0  0  0  0  0  0
   -7.0009   -0.3809    1.7704 C   0  0  0  0  0  0  0  0  0  0  0  0
   -0.1730    0.4499   -2.9638 H   0  0  0  0  0  0  0  0  0  0  0  0
   -2.9839   -0.5571    1.4877 H   0  0  0  0  0  0  0  0  0  0  0  0
   -2.7386    1.6114   -3.0115 H   0  0  0  0  0  0  0  0  0  0  0  0
   -4.7971    1.8189   -1.6374 H   0  0  0  0  0  0  0  0  0  0  0  0
    4.1074    2.1816    1.9622 H   0  0  0  0  0  0  0  0  0  0  0  0
   -5.1624   -1.2753    1.2168 H   0  0  0  0  0  0  0  0  0  0  0  0
   -5.0313   -0.1297    2.5886 H   0  0  0  0  0  0  0  0  0  0  0  0
    3.6215    4.3641    0.8715 H   0  0  0  0  0  0  0  0  0  0  0  0
    5.2272    3.7481    0.4181 H   0  0  0  0  0  0  0  0  0  0  0  0
    3.8968    3.6230   -0.7231 H   0  0  0  0  0  0  0  0  0  0  0  0
    1.7221    2.7102    1.2317 H   0  0  0  0  0  0  0  0  0  0  0  0
    2.0333    0.9798    1.3178 H   0  0  0  0  0  0  0  0  0  0  0  0
    2.0200    1.7805   -0.2507 H   0  0  0  0  0  0  0  0  0  0  0  0
    5.5848   -1.2960   -0.6090 H   0  0  0  0  0  0  0  0  0  0  0  0
    4.2510   -0.5039   -1.4787 H   0  0  0  0  0  0  0  0  0  0  0  0
   -7.2853   -1.1907    2.4482 H   0  0  0  0  0  0  0  0  0  0  0  0
   -7.3932    0.5627    2.1639 H   0  0  0  0  0  0  0  0  0  0  0  0
   -7.4828   -0.5458    0.8010 H   0  0  0  0  0  0  0  0  0  0  0  0
  1 18  1  0  0  0  0
  1 22  1  0  0  0  0
  2 15  1  0  0  0  0
  2 19  1  0  0  0  0
  3 17  1  0  0  0  0
  3 23  1  0  0  0  0
  4 23  2  0  0  0  0
  5 10  1  0  0  0  0
  5 12  1  0  0  0  0
  5 25  1  0  0  0  0
  6 12  1  0  0  0  0
  6 18  2  0  0  0  0
  7  8  2  0  0  0  0
  7 11  1  0  0  0  0
  8 18  1  0  0  0  0
  9 10  2  0  0  0  0
  9 11  1  0  0  0  0
  9 13  1  0  0  0  0
 10 14  1  0  0  0  0
 11 12  2  0  0  0  0
 13 15  2  0  0  0  0
 13 26  1  0  0  0  0
 14 16  2  0  0  0  0
 14 27  1  0  0  0  0
 15 16  1  0  0  0  0
 16 28  1  0  0  0  0
 17 20  1  0  0  0  0
 17 21  1  0  0  0  0
 17 29  1  0  0  0  0
 19 24  1  0  0  0  0
 19 30  1  0  0  0  0
 19 31  1  0  0  0  0
 20 32  1  0  0  0  0
 20 33  1  0  0  0  0
 20 34  1  0  0  0  0
 21 35  1  0  0  0  0
 21 36  1  0  0  0  0
 21 37  1  0  0  0  0
 22 23  1  0  0  0  0
 22 38  1  0  0  0  0
 22 39  1  0  0  0  0
 24 40  1  0  0  0  0
 24 41  1  0  0  0  0
 24 42  1  0  0  0  0
M  END
> <PUBCHEM_COMPOUND_CID>
5767802

> <PUBCHEM_CONFORMER_RMSD>
0.8

> <PUBCHEM_CONFORMER_DIVERSEORDER>
1
30
14
19
42
219
203
13
150
182
125
36
95
157
41
112
91
163
224
174
109
166
54
198
176
216
120
20
24
126
228
61
204
70
131
133
26
122
178
67
4
12
234
118
110
225
195
184
84
132
153
115
106
55
99
64
217
158
111
162
233
66
102
28
31
183
81
171
201
72
197
141
6
200
52
205
235
168
215
139
8
213
199
148
129
53
56
5
45
107
124
208
57
191
130
29
170
10
117
196
73
169
151
65
236
104
210
59
138
114
101
85
108
160
207
79
63
7
78
193
119
155
226
2
48
92
77
209
136
156
227
181
165
3
33
49
83
113
185
23
17
15
40
189
145
50
38
164
175
21
37
190
80
75
192
188
27
39
172
128
222
154
62
22
152
140
212
177
194
32
137
69
89
58
76
144
167
90
93
96
11
51
179
47
146
43
94
173
98
25
232
74
186
231
127
149
221
18
161
87
229
202
147
223
88
159
60
105
16
142
220
86
123
121
34
46
82
214
218
230
35
187
97
44
9
100
135
143
211
116
103
71
68
206
180
134

> <PUBCHEM_MMFF94_PARTIAL_CHARGES>
24
1 -0.33
10 -0.15
11 0.26
12 0.11
13 -0.15
14 -0.15
15 0.08
16 -0.15
17 0.28
18 0.72
19 0.28
2 -0.36
22 0.29
23 0.66
25 0.27
26 0.15
27 0.15
28 0.15
3 -0.43
4 -0.57
5 0.03
6 -0.57
7 -0.26
8 -0.31

> <PUBCHEM_EFFECTIVE_ROTOR_COUNT>
7

> <PUBCHEM_PHARMACOPHORE_FEATURES>
9
1 2 acceptor
1 4 acceptor
1 5 cation
1 5 donor
3 17 20 21 hydrophobe
3 6 8 18 cation
5 5 9 10 11 12 rings
6 6 7 8 11 12 18 rings
6 9 10 13 14 15 16 rings

> <PUBCHEM_HEAVY_ATOM_COUNT>
24

> <PUBCHEM_ATOM_DEF_STEREO_COUNT>
0

> <PUBCHEM_ATOM_UDEF_STEREO_COUNT>
0

> <PUBCHEM_BOND_DEF_STEREO_COUNT>
0

> <PUBCHEM_BOND_UDEF_STEREO_COUNT>
0

> <PUBCHEM_ISOTOPIC_ATOM_COUNT>
0

> <PUBCHEM_COMPONENT_COUNT>
1

> <PUBCHEM_CACTVS_TAUTO_COUNT>
4

> <PUBCHEM_CONFORMER_ID>
0058027A00000001

> <PUBCHEM_MMFF94_ENERGY>
55.0319

> <PUBCHEM_FEATURE_SELFOVERLAP>
45.894

> <PUBCHEM_SHAPE_FINGERPRINT>
10165383 225 18188223082521113102
10319926 262 17241589651288005352
10615611 76 17560816411109568817
11045977 3 18261395516197245315
12236239 1 16702013154594215982
12403259 415 18260266343303712284
12616971 3 17346028974743987807
12633257 1 18189032301308985658
12839892 36 16588021277894449539
13075007 39 18186524327543559432
13583140 156 18043232583487810847
13782708 43 17823135627411306226
14251764 75 18054229005947819216
14508693 111 15287064980666279160
14790565 3 14332860240357826115
15119646 104 12829205568977712897
151778 21 18264203802408460172
15183329 4 8430320121774654563
15342168 16 18272087244511827516
15475509 8 11599462294897502651
1768 85 18339360871936869609
17857418 61 12973604447795346281
1813 80 17056968360546285294
18681886 176 16661510436304194950
18785283 64 18335421313527387916
19377110 9 17846497071831687551
20626108 58 15213023738929365935
21033648 29 18187634774179046725
21033650 10 14764083280084755226
21315764 119 14764362526095096412
21315764 371 14707204435521109816
21365058 113 17985006820674543406
21475661 188 18263344937576453924
21792934 111 18041010527683562817
22079108 93 18411985762809428347
22122407 14 18059022687834816385
23559900 14 16880188901784446719
3459 110 18338517564119922539
3472631 163 15051723214049522184
392239 28 18408889525222524537
397830 11 18339089271938785523
474 4 18271795844240014718
5104073 3 17823696352776480643
56616090 89 16877951538130699517
57724786 102 18271528701538386164
633830 44 18272081730090129364
960060 61 9943807807003169160

> <PUBCHEM_SHAPE_MULTIPOLES>
460.23
13
2.64
1.78
12.38
1.36
0.34
3.22
-6.87
-5.16
-0.31
1.85
0.11
1.67

> <PUBCHEM_SHAPE_SELFOVERLAP>
972.183

> <PUBCHEM_SHAPE_VOLUME>
261.7

> <PUBCHEM_COORDINATE_TYPE>
2
5
10

$$$$
