2463592
  -OEChem-01171811533D

 33 35  0     0  0  0  0  0  0999 V2000
   -0.0931    3.5525   -0.9411 S   0  0  0  0  0  0  0  0  0  0  0  0
    5.1956   -2.3555    0.6622 F   0  0  0  0  0  0  0  0  0  0  0  0
   -0.1850    0.9907    0.0523 N   0  0  0  0  0  0  0  0  0  0  0  0
    1.9221    1.9535   -0.4493 N   0  0  0  0  0  0  0  0  0  0  0  0
   -3.4798   -2.8487   -0.6659 N   0  0  0  0  0  0  0  0  0  0  0  0
   -2.1823   -0.4224   -0.0688 C   0  0  0  0  0  0  0  0  0  0  0  0
   -1.5595    0.7985    0.2378 C   0  0  0  0  0  0  0  0  0  0  0  0
   -3.5706   -0.5560    0.1398 C   0  0  0  0  0  0  0  0  0  0  0  0
   -2.3021    1.8676    0.7420 C   0  0  0  0  0  0  0  0  0  0  0  0
   -4.3080    0.5264    0.6477 C   0  0  0  0  0  0  0  0  0  0  0  0
   -1.4655   -1.5127   -0.5754 C   0  0  0  0  0  0  0  0  0  0  0  0
   -3.6732    1.7318    0.9465 C   0  0  0  0  0  0  0  0  0  0  0  0
   -4.1545   -1.7843   -0.1762 C   0  0  0  0  0  0  0  0  0  0  0  0
    0.5453    2.0995   -0.3739 C   0  0  0  0  0  0  0  0  0  0  0  0
    2.7619    0.8477   -0.1645 C   0  0  0  0  0  0  0  0  0  0  0  0
   -2.1528   -2.6845   -0.8525 C   0  0  0  0  0  0  0  0  0  0  0  0
    3.9704    0.7287   -0.8280 C   0  0  0  0  0  0  0  0  0  0  0  0
    2.3534   -0.0869    0.7709 C   0  0  0  0  0  0  0  0  0  0  0  0
    4.7968   -0.3594   -0.5474 C   0  0  0  0  0  0  0  0  0  0  0  0
    3.1797   -1.1751    1.0515 C   0  0  0  0  0  0  0  0  0  0  0  0
    4.4014   -1.3114    0.3923 C   0  0  0  0  0  0  0  0  0  0  0  0
   -1.8460    2.7958    1.0691 H   0  0  0  0  0  0  0  0  0  0  0  0
   -5.3785    0.4361    0.8174 H   0  0  0  0  0  0  0  0  0  0  0  0
    0.3056    0.1244   -0.1078 H   0  0  0  0  0  0  0  0  0  0  0  0
   -0.4013   -1.5002   -0.7775 H   0  0  0  0  0  0  0  0  0  0  0  0
   -4.2462    2.5584    1.3569 H   0  0  0  0  0  0  0  0  0  0  0  0
   -5.2191   -1.9538   -0.0394 H   0  0  0  0  0  0  0  0  0  0  0  0
    2.3906    2.7154   -0.9356 H   0  0  0  0  0  0  0  0  0  0  0  0
   -1.6331   -3.5510   -1.2485 H   0  0  0  0  0  0  0  0  0  0  0  0
    4.2868    1.4642   -1.5622 H   0  0  0  0  0  0  0  0  0  0  0  0
    1.4834    0.0252    1.4073 H   0  0  0  0  0  0  0  0  0  0  0  0
    5.7480   -0.4658   -1.0604 H   0  0  0  0  0  0  0  0  0  0  0  0
    2.8857   -1.9023    1.8028 H   0  0  0  0  0  0  0  0  0  0  0  0
  1 14  2  0  0  0  0
  2 21  1  0  0  0  0
  3  7  1  0  0  0  0
  3 14  1  0  0  0  0
  3 24  1  0  0  0  0
  4 14  1  0  0  0  0
  4 15  1  0  0  0  0
  4 28  1  0  0  0  0
  5 13  2  0  0  0  0
  5 16  1  0  0  0  0
  6  7  1  0  0  0  0
  6  8  2  0  0  0  0
  6 11  1  0  0  0  0
  7  9  2  0  0  0  0
  8 10  1  0  0  0  0
  8 13  1  0  0  0  0
  9 12  1  0  0  0  0
  9 22  1  0  0  0  0
 10 12  2  0  0  0  0
 10 23  1  0  0  0  0
 11 16  2  0  0  0  0
 11 25  1  0  0  0  0
 12 26  1  0  0  0  0
 13 27  1  0  0  0  0
 15 17  2  0  0  0  0
 15 18  1  0  0  0  0
 16 29  1  0  0  0  0
 17 19  1  0  0  0  0
 17 30  1  0  0  0  0
 18 20  2  0  0  0  0
 18 31  1  0  0  0  0
 19 21  2  0  0  0  0
 19 32  1  0  0  0  0
 20 21  1  0  0  0  0
 20 33  1  0  0  0  0
M  END
> <PUBCHEM_COMPOUND_CID>
2463592

> <PUBCHEM_CONFORMER_RMSD>
0.6

> <PUBCHEM_CONFORMER_DIVERSEORDER>
1
12
2
8
6
13
11
5
3
9
4
7
10

> <PUBCHEM_MMFF94_PARTIAL_CHARGES>
31
1 -0.38
10 -0.15
11 -0.15
12 -0.15
13 0.16
14 0.5
15 0.12
16 0.16
17 -0.15
18 -0.15
19 -0.15
2 -0.19
20 -0.15
21 0.19
22 0.15
23 0.15
24 0.37
25 0.15
26 0.15
27 0.15
28 0.37
29 0.15
3 -0.55
30 0.15
31 0.15
32 0.15
33 0.15
4 -0.55
5 -0.62
7 0.12
9 -0.15

> <PUBCHEM_EFFECTIVE_ROTOR_COUNT>
4

> <PUBCHEM_PHARMACOPHORE_FEATURES>
7
1 1 acceptor
1 3 donor
1 4 donor
1 5 acceptor
6 15 17 18 19 20 21 rings
6 5 6 8 11 13 16 rings
6 6 7 8 9 10 12 rings

> <PUBCHEM_HEAVY_ATOM_COUNT>
21

> <PUBCHEM_ATOM_DEF_STEREO_COUNT>
0

> <PUBCHEM_ATOM_UDEF_STEREO_COUNT>
0

> <PUBCHEM_BOND_DEF_STEREO_COUNT>
0

> <PUBCHEM_BOND_UDEF_STEREO_COUNT>
0

> <PUBCHEM_ISOTOPIC_ATOM_COUNT>
0

> <PUBCHEM_COMPONENT_COUNT>
1

> <PUBCHEM_CACTVS_TAUTO_COUNT>
3

> <PUBCHEM_CONFORMER_ID>
0025976800000001

> <PUBCHEM_MMFF94_ENERGY>
89.5734

> <PUBCHEM_FEATURE_SELFOVERLAP>
35.584

> <PUBCHEM_SHAPE_FINGERPRINT>
10062212 137 18342739663111476783
10369192 42 17270855563155376520
10616163 171 18342744052046119270
11578080 2 18191281922984453828
12107183 9 18195532488992073536
12553582 1 18334288764942216064
12596599 1 18129398054550772018
12633257 1 17988933231825310128
13167823 11 18409452496371200432
14420673 8 18126574427129307198
15042514 8 18342183314892002691
15099037 8 18268148845617103501
15196674 1 18411138052044393226
15420108 30 17910956834411037601
15442244 35 18339644541752319869
15537594 2 18261689115987750408
16110190 28 18341330016332655218
17349148 13 18131631218712389349
17492 89 18194402418809408883
17804303 29 18202566193802979577
17818456 19 18271818912478388849
1813 80 17822588117748490204
19141452 34 18340208492391033617
20261772 1 18410581647510348544
20281475 54 18409728469706119748
20291156 8 18410008879298585564
20600515 1 18059305274680807984
21634736 98 18193557997888861964
2255824 54 17900824069534346460
235170 7 14634871929226555570
23559900 14 18131066090615041032
23598288 3 17607232169827115432
23598291 2 18264498449638066981
23728640 28 18273497875386909307
339767 52 18337941372518466370
4409770 3 17972588892736805373
5104073 3 18272374204056150897
5385378 56 17696487182939854953
559249 180 18336825282401239571
56633871 153 18340771429575889955
602551 16 18202001006514410282
6823239 73 17773901760656924390
6992083 37 18338809943997803953
7064713 232 18129944464236938136
7097593 13 18339363101204075341
9709674 26 18120375612203909475

> <PUBCHEM_SHAPE_MULTIPOLES>
413.8
10.17
3.47
0.99
6.91
0.68
0.03
-5.69
1.15
-1.41
-0.92
0.09
0.05
-1.96

> <PUBCHEM_SHAPE_SELFOVERLAP>
898.189

> <PUBCHEM_SHAPE_VOLUME>
229.4

> <PUBCHEM_COORDINATE_TYPE>
2
5
10

$$$$
