6517353
  -OEChem-01171812013D

 43 46  0     0  0  0  0  0  0999 V2000
    3.6780    1.0798    0.0281 O   0  0  0  0  0  0  0  0  0  0  0  0
    0.9180    2.2246    2.2002 O   0  0  0  0  0  0  0  0  0  0  0  0
   -3.9198   -3.1210   -0.0945 O   0  0  0  0  0  0  0  0  0  0  0  0
    1.3628    0.6489   -0.1030 N   0  0  0  0  0  0  0  0  0  0  0  0
    0.7335   -1.6939   -0.2467 N   0  0  0  0  0  0  0  0  0  0  0  0
    0.3698   -0.3600   -0.1763 C   0  0  0  0  0  0  0  0  0  0  0  0
    3.0748   -1.1648    0.0186 C   0  0  0  0  0  0  0  0  0  0  0  0
    2.0563   -2.1113   -0.1222 C   0  0  0  0  0  0  0  0  0  0  0  0
    2.7374    0.2855   -0.0002 C   0  0  0  0  0  0  0  0  0  0  0  0
    1.0765    2.0615   -0.1884 C   0  0  0  0  0  0  0  0  0  0  0  0
    4.4075   -1.5765    0.1516 C   0  0  0  0  0  0  0  0  0  0  0  0
    2.3845   -3.4729   -0.1373 C   0  0  0  0  0  0  0  0  0  0  0  0
   -0.9486   -0.0743   -0.1052 C   0  0  0  0  0  0  0  0  0  0  0  0
    0.8635    2.8017    0.9666 C   0  0  0  0  0  0  0  0  0  0  0  0
    1.0189    2.6592   -1.4404 C   0  0  0  0  0  0  0  0  0  0  0  0
    4.7212   -2.9354    0.1414 C   0  0  0  0  0  0  0  0  0  0  0  0
    3.7113   -3.8831   -0.0047 C   0  0  0  0  0  0  0  0  0  0  0  0
   -1.9679   -1.0866   -0.1003 C   0  0  0  0  0  0  0  0  0  0  0  0
    0.5880    4.1655    0.8678 C   0  0  0  0  0  0  0  0  0  0  0  0
    0.7431    4.0230   -1.5389 C   0  0  0  0  0  0  0  0  0  0  0  0
   -3.2736   -0.8045   -0.0300 C   0  0  0  0  0  0  0  0  0  0  0  0
    0.5277    4.7761   -0.3849 C   0  0  0  0  0  0  0  0  0  0  0  0
   -4.2516   -1.9426   -0.0316 C   0  0  0  0  0  0  0  0  0  0  0  0
   -3.7760    0.5525    0.0477 C   0  0  0  0  0  0  0  0  0  0  0  0
   -5.6910   -1.5675    0.0484 C   0  0  0  0  0  0  0  0  0  0  0  0
   -5.0915    0.7958    0.1173 C   0  0  0  0  0  0  0  0  0  0  0  0
   -6.0529   -0.2799    0.1170 C   0  0  0  0  0  0  0  0  0  0  0  0
    0.0522   -2.4239   -0.3793 H   0  0  0  0  0  0  0  0  0  0  0  0
    5.2142   -0.8570    0.2616 H   0  0  0  0  0  0  0  0  0  0  0  0
    1.6068   -4.2248   -0.2486 H   0  0  0  0  0  0  0  0  0  0  0  0
   -1.2350    0.9641   -0.0244 H   0  0  0  0  0  0  0  0  0  0  0  0
    1.1857    2.0808   -2.3450 H   0  0  0  0  0  0  0  0  0  0  0  0
    5.7542   -3.2546    0.2444 H   0  0  0  0  0  0  0  0  0  0  0  0
    3.9560   -4.9412   -0.0148 H   0  0  0  0  0  0  0  0  0  0  0  0
   -1.7018   -2.1341   -0.1446 H   0  0  0  0  0  0  0  0  0  0  0  0
    0.4179    4.7648    1.7582 H   0  0  0  0  0  0  0  0  0  0  0  0
    0.6962    4.4984   -2.5143 H   0  0  0  0  0  0  0  0  0  0  0  0
    0.3130    5.8380   -0.4619 H   0  0  0  0  0  0  0  0  0  0  0  0
   -3.1284    1.4187    0.0516 H   0  0  0  0  0  0  0  0  0  0  0  0
    0.7416    2.9016    2.8759 H   0  0  0  0  0  0  0  0  0  0  0  0
   -6.4258   -2.3642    0.0491 H   0  0  0  0  0  0  0  0  0  0  0  0
   -5.4675    1.8116    0.1747 H   0  0  0  0  0  0  0  0  0  0  0  0
   -7.1023   -0.0102    0.1752 H   0  0  0  0  0  0  0  0  0  0  0  0
  1  9  2  0  0  0  0
  2 14  1  0  0  0  0
  2 40  1  0  0  0  0
  3 23  2  0  0  0  0
  4  6  1  0  0  0  0
  4  9  1  0  0  0  0
  4 10  1  0  0  0  0
  5  6  1  0  0  0  0
  5  8  1  0  0  0  0
  5 28  1  0  0  0  0
  6 13  2  0  0  0  0
  7  8  1  0  0  0  0
  7  9  1  0  0  0  0
  7 11  2  0  0  0  0
  8 12  2  0  0  0  0
 10 14  1  0  0  0  0
 10 15  2  0  0  0  0
 11 16  1  0  0  0  0
 11 29  1  0  0  0  0
 12 17  1  0  0  0  0
 12 30  1  0  0  0  0
 13 18  1  0  0  0  0
 13 31  1  0  0  0  0
 14 19  2  0  0  0  0
 15 20  1  0  0  0  0
 15 32  1  0  0  0  0
 16 17  2  0  0  0  0
 16 33  1  0  0  0  0
 17 34  1  0  0  0  0
 18 21  2  0  0  0  0
 18 35  1  0  0  0  0
 19 22  1  0  0  0  0
 19 36  1  0  0  0  0
 20 22  2  0  0  0  0
 20 37  1  0  0  0  0
 21 23  1  0  0  0  0
 21 24  1  0  0  0  0
 22 38  1  0  0  0  0
 23 25  1  0  0  0  0
 24 26  2  0  0  0  0
 24 39  1  0  0  0  0
 25 27  2  0  0  0  0
 25 41  1  0  0  0  0
 26 27  1  0  0  0  0
 26 42  1  0  0  0  0
 27 43  1  0  0  0  0
M  END
> <PUBCHEM_COMPOUND_CID>
6517353

> <PUBCHEM_CONFORMER_RMSD>
0.6

> <PUBCHEM_CONFORMER_DIVERSEORDER>
1
2

> <PUBCHEM_MMFF94_PARTIAL_CHARGES>
43
1 -0.57
10 0.12
11 -0.15
12 -0.15
13 -0.15
14 0.08
15 -0.15
16 -0.15
17 -0.15
18 -0.15
19 -0.15
2 -0.53
20 -0.15
21 0.01
22 -0.15
23 0.54
24 -0.15
25 -0.14
26 -0.15
27 -0.15
28 0.4
29 0.15
3 -0.57
30 0.15
31 0.15
32 0.15
33 0.15
34 0.15
35 0.15
36 0.15
37 0.15
38 0.15
39 0.15
4 -0.29
40 0.45
41 0.15
42 0.15
43 0.15
5 -0.6
6 0.21
7 0.09
8 0.1
9 0.54

> <PUBCHEM_EFFECTIVE_ROTOR_COUNT>
2.4

> <PUBCHEM_PHARMACOPHORE_FEATURES>
9
1 1 acceptor
1 2 donor
1 3 acceptor
1 5 cation
1 5 donor
6 10 14 15 19 20 22 rings
6 21 23 24 25 26 27 rings
6 4 5 6 7 8 9 rings
6 7 8 11 12 16 17 rings

> <PUBCHEM_HEAVY_ATOM_COUNT>
27

> <PUBCHEM_ATOM_DEF_STEREO_COUNT>
0

> <PUBCHEM_ATOM_UDEF_STEREO_COUNT>
0

> <PUBCHEM_BOND_DEF_STEREO_COUNT>
2

> <PUBCHEM_BOND_UDEF_STEREO_COUNT>
0

> <PUBCHEM_ISOTOPIC_ATOM_COUNT>
0

> <PUBCHEM_COMPONENT_COUNT>
1

> <PUBCHEM_CACTVS_TAUTO_COUNT>
15

> <PUBCHEM_CONFORMER_ID>
0063726900000001

> <PUBCHEM_MMFF94_ENERGY>
115.1761

> <PUBCHEM_FEATURE_SELFOVERLAP>
45.696

> <PUBCHEM_SHAPE_FINGERPRINT>
10050765 1 17905890272162076126
10411042 1 18337954472116419910
10688039 33 18190463761883714468
11045515 52 18263646173470378521
12107183 9 18269000778666728779
12160290 23 17402648171502731976
12166972 35 18343022194750161459
12516196 113 18411417267626258698
12788726 201 17972880259218052810
13004483 165 18266452105675206554
13134695 92 18343576352383736461
13140716 1 17835516394527049090
13533116 47 18338797948665790647
13540713 4 17696742269790621942
13540713 5 17682691619299711174
13590594 115 18336554798583748537
138480 1 18410293631172040149
13955234 65 18194407916556913067
13965767 371 17468454354853749653
14790565 3 18048884288546633684
14866123 147 17402894423500582107
15042514 8 18122907521157801301
15420108 30 17841409717381776018
15927050 60 17910110553954579558
16087824 20 18049443639612931349
17492 89 18265053707896268267
17868525 174 18411698794754162433
17980427 26 17700672215741184452
18335252 114 18265321830299255805
19319366 153 17694781118517618383
20642791 178 17901388115163214700
20739085 24 18412547613092946918
21049683 271 18261684752243020916
21065198 57 18338799026560027075
21133410 127 17824534408825437109
21133410 90 12978731350632077405
21478907 32 18193275183114495946
21641784 216 18045521741638784812
22033318 11 17910715045037514841
2255824 54 18193559093147681588
23559900 14 18338229470920329523
249057 3 18411981318135176183
283562 15 18118687613132805338
3103668 31 17828766136595059197
3178227 256 18120951760660565794
3421961 26 18411979165465147258
345986 75 17825092723495516059
350125 39 17905329880890025909
4015057 19 18410283745080672679
4409770 3 17757827828045201229
46194498 28 17822010960349423181
6442390 28 17473549526111763621
6443956 14 18410013247264462412
70251023 43 18264493875862004154
7164475 11 18119817906938469078
7808743 9 16752688885389087949
9709674 26 18262522619122809459
9777508 108 17618497688729568184
9962374 69 18339354288696594563
9981440 41 17616811476058332769

> <PUBCHEM_SHAPE_MULTIPOLES>
528.08
10.45
6.15
0.99
13.19
5.54
-0.14
-12.04
-0.49
-4.48
0.49
-0.28
1.13
-0.11

> <PUBCHEM_SHAPE_SELFOVERLAP>
1172.504

> <PUBCHEM_SHAPE_VOLUME>
277.9

> <PUBCHEM_COORDINATE_TYPE>
2
5
10

$$$$
