22550640
  -OEChem-01171812083D

 46 48  0     1  0  0  0  0  0999 V2000
   -3.7315   -0.4483   -1.9300 S   0  0  0  0  0  0  0  0  0  0  0  0
    1.4295   -2.7824    0.9013 S   0  0  0  0  0  0  0  0  0  0  0  0
   -1.5828    0.8470    2.6792 O   0  0  0  0  0  0  0  0  0  0  0  0
    1.3790   -4.2297    0.7322 O   0  0  0  0  0  0  0  0  0  0  0  0
    1.5521   -2.2359    2.2470 O   0  0  0  0  0  0  0  0  0  0  0  0
    2.8911    3.3321   -1.0358 O   0  0  0  0  0  0  0  0  0  0  0  0
   -2.0695    1.0282    0.3888 N   0  0  0  0  0  0  0  0  0  0  0  0
    2.7019   -2.1723   -0.0870 N   0  0  0  0  0  0  0  0  0  0  0  0
   -4.1590    1.0405   -0.9862 C   0  0  2  0  0  0  0  0  0  0  0  0
   -2.8870    1.7745   -0.5820 C   0  0  0  0  0  0  0  0  0  0  0  0
   -1.6164   -0.2781   -0.0317 C   0  0  0  0  0  0  0  0  0  0  0  0
   -2.2630   -0.9939   -1.0621 C   0  0  0  0  0  0  0  0  0  0  0  0
   -0.4727   -0.8583    0.5530 C   0  0  0  0  0  0  0  0  0  0  0  0
    0.0022   -2.1097    0.1531 C   0  0  0  0  0  0  0  0  0  0  0  0
   -5.0633    0.6932    0.1938 C   0  0  0  0  0  0  0  0  0  0  0  0
   -1.7713   -2.2533   -1.4570 C   0  0  0  0  0  0  0  0  0  0  0  0
   -1.7745    1.5308    1.6699 C   0  0  0  0  0  0  0  0  0  0  0  0
   -0.6493   -2.8095   -0.8502 C   0  0  0  0  0  0  0  0  0  0  0  0
   -1.7208    3.0340    1.8089 C   0  0  0  0  0  0  0  0  0  0  0  0
    2.7500   -0.7558   -0.3309 C   0  0  0  0  0  0  0  0  0  0  0  0
    2.8772    0.1323    0.7373 C   0  0  0  0  0  0  0  0  0  0  0  0
    2.6699   -0.2699   -1.6360 C   0  0  0  0  0  0  0  0  0  0  0  0
    2.9242    1.5060    0.5003 C   0  0  0  0  0  0  0  0  0  0  0  0
    2.7168    1.1038   -1.8730 C   0  0  0  0  0  0  0  0  0  0  0  0
    2.8439    1.9918   -0.8048 C   0  0  0  0  0  0  0  0  0  0  0  0
    3.0234    4.1830    0.1018 C   0  0  0  0  0  0  0  0  0  0  0  0
   -4.7266    1.6863   -1.6662 H   0  0  0  0  0  0  0  0  0  0  0  0
   -3.1842    2.7371   -0.1556 H   0  0  0  0  0  0  0  0  0  0  0  0
   -2.2540    2.0064   -1.4488 H   0  0  0  0  0  0  0  0  0  0  0  0
    0.0718   -0.3167    1.3210 H   0  0  0  0  0  0  0  0  0  0  0  0
   -4.5947   -0.0069    0.8936 H   0  0  0  0  0  0  0  0  0  0  0  0
   -5.3200    1.5989    0.7545 H   0  0  0  0  0  0  0  0  0  0  0  0
   -6.0029    0.2463   -0.1504 H   0  0  0  0  0  0  0  0  0  0  0  0
   -2.2617   -2.8210   -2.2460 H   0  0  0  0  0  0  0  0  0  0  0  0
   -0.2971   -3.7794   -1.1884 H   0  0  0  0  0  0  0  0  0  0  0  0
    2.9658   -2.7560   -0.8917 H   0  0  0  0  0  0  0  0  0  0  0  0
   -2.7265    3.4239    1.9858 H   0  0  0  0  0  0  0  0  0  0  0  0
   -1.2883    3.4934    0.9159 H   0  0  0  0  0  0  0  0  0  0  0  0
   -1.0842    3.2954    2.6597 H   0  0  0  0  0  0  0  0  0  0  0  0
    2.9706   -0.2204    1.7596 H   0  0  0  0  0  0  0  0  0  0  0  0
    2.5685   -0.9525   -2.4757 H   0  0  0  0  0  0  0  0  0  0  0  0
    3.0294    2.1389    1.3748 H   0  0  0  0  0  0  0  0  0  0  0  0
    2.6532    1.4763   -2.8917 H   0  0  0  0  0  0  0  0  0  0  0  0
    2.1592    4.0988    0.7697 H   0  0  0  0  0  0  0  0  0  0  0  0
    3.9705    4.0117    0.6245 H   0  0  0  0  0  0  0  0  0  0  0  0
    3.0434    5.2140   -0.2663 H   0  0  0  0  0  0  0  0  0  0  0  0
  1  9  1  0  0  0  0
  1 12  1  0  0  0  0
  2  4  2  0  0  0  0
  2  5  2  0  0  0  0
  2  8  1  0  0  0  0
  2 14  1  0  0  0  0
  3 17  2  0  0  0  0
  6 25  1  0  0  0  0
  6 26  1  0  0  0  0
  7 10  1  0  0  0  0
  7 11  1  0  0  0  0
  7 17  1  0  0  0  0
  8 20  1  0  0  0  0
  8 36  1  0  0  0  0
  9 10  1  0  0  0  0
  9 15  1  0  0  0  0
  9 27  1  0  0  0  0
 10 28  1  0  0  0  0
 10 29  1  0  0  0  0
 11 12  2  0  0  0  0
 11 13  1  0  0  0  0
 12 16  1  0  0  0  0
 13 14  2  0  0  0  0
 13 30  1  0  0  0  0
 14 18  1  0  0  0  0
 15 31  1  0  0  0  0
 15 32  1  0  0  0  0
 15 33  1  0  0  0  0
 16 18  2  0  0  0  0
 16 34  1  0  0  0  0
 17 19  1  0  0  0  0
 18 35  1  0  0  0  0
 19 37  1  0  0  0  0
 19 38  1  0  0  0  0
 19 39  1  0  0  0  0
 20 21  2  0  0  0  0
 20 22  1  0  0  0  0
 21 23  1  0  0  0  0
 21 40  1  0  0  0  0
 22 24  2  0  0  0  0
 22 41  1  0  0  0  0
 23 25  2  0  0  0  0
 23 42  1  0  0  0  0
 24 25  1  0  0  0  0
 24 43  1  0  0  0  0
 26 44  1  0  0  0  0
 26 45  1  0  0  0  0
 26 46  1  0  0  0  0
M  END
> <PUBCHEM_COMPOUND_CID>
22550640

> <PUBCHEM_CONFORMER_RMSD>
0.8

> <PUBCHEM_CONFORMER_DIVERSEORDER>
1
31
44
55
62
46
48
8
34
17
3
2
42
38
29
22
26
25
40
43
53
33
20
57
58
39
49
56
7
51
23
61
41
59
6
14
15
50
21
54
12
19
30
37
4
36
5
11
18
16
47
52
45
27
28
60
10
35
32
24
13
9

> <PUBCHEM_MMFF94_PARTIAL_CHARGES>
33
1 -0.33
10 0.3
11 0.12
12 0.1
13 -0.15
14 -0.01
16 -0.15
17 0.57
18 -0.15
19 0.06
2 1.45
20 0.2
21 -0.15
22 -0.15
23 -0.15
24 -0.15
25 0.08
26 0.28
3 -0.57
30 0.15
34 0.15
35 0.15
36 0.42
4 -0.65
40 0.15
41 0.15
42 0.15
43 0.15
5 -0.65
6 -0.36
7 -0.48
8 -0.76
9 0.23

> <PUBCHEM_EFFECTIVE_ROTOR_COUNT>
5.8

> <PUBCHEM_PHARMACOPHORE_FEATURES>
8
1 3 acceptor
1 4 acceptor
1 5 acceptor
1 6 acceptor
1 8 donor
6 1 7 9 10 11 12 rings
6 11 12 13 14 16 18 rings
6 20 21 22 23 24 25 rings

> <PUBCHEM_HEAVY_ATOM_COUNT>
26

> <PUBCHEM_ATOM_DEF_STEREO_COUNT>
0

> <PUBCHEM_ATOM_UDEF_STEREO_COUNT>
1

> <PUBCHEM_BOND_DEF_STEREO_COUNT>
0

> <PUBCHEM_BOND_UDEF_STEREO_COUNT>
0

> <PUBCHEM_ISOTOPIC_ATOM_COUNT>
0

> <PUBCHEM_COMPONENT_COUNT>
1

> <PUBCHEM_CACTVS_TAUTO_COUNT>
1

> <PUBCHEM_CONFORMER_ID>
0158187000000001

> <PUBCHEM_MMFF94_ENERGY>
84.8211

> <PUBCHEM_FEATURE_SELFOVERLAP>
40.632

> <PUBCHEM_SHAPE_FINGERPRINT>
10165383 225 17320194922857876278
10366900 7 16734126526065934223
10675989 125 18341324570109292049
10708813 3 18196648506084170276
11370993 70 18119516876522297484
11387372 6 12263239890952610783
11578080 2 11703474153506938381
11640471 11 18262508299305634110
12035759 4 18201440225382219401
12403259 327 14273736299716750997
12592029 89 18260835890917711109
12788726 201 17761208121540892966
128993 33 18120969245593824708
13009979 54 17626382316345247107
133893 2 17972057850194879261
13583140 156 17896886461208640299
13965767 371 16759431579878429011
14123250 116 18057063477761143336
14468879 13 17749950080603692461
14787075 74 17976816811699189343
14790565 3 18272655654186391909
14955137 171 17980223893137891322
15420108 30 17624417472350330568
17980427 23 18125970919978505498
18981168 100 17895774974784599570
19319366 153 18265592446929300871
19765921 60 18191575552696700835
19930381 70 18334008411089672301
20510252 161 17977109290081094150
20715895 44 18192404473259144533
23419403 2 16107272308356345506
23557571 272 17560509720200456142
23559900 14 17703789206424362484
238 59 18335431140127373952
35225 105 17466267361531717502
394222 165 18188193390494765859
469060 322 17681567153352055299
474 4 18261385663331206846
526903 126 18123471841142532228
6992083 37 17621590623212230859
9981440 41 17905316678856754226

> <PUBCHEM_SHAPE_MULTIPOLES>
509.33
7.21
4.63
2
3.64
0.09
-0.51
4.46
2.43
-3.48
-1.06
0.35
0.24
-2.06

> <PUBCHEM_SHAPE_SELFOVERLAP>
1057.631

> <PUBCHEM_SHAPE_VOLUME>
290.9

> <PUBCHEM_COORDINATE_TYPE>
2
5
10

$$$$
