24818481
  -OEChem-01171812103D

 37 39  0     0  0  0  0  0  0999 V2000
    2.2608    4.6235   -0.3803 Br  0  0  0  0  0  0  0  0  0  0  0  0
    2.9079   -1.7883   -0.1908 S   0  0  0  0  0  0  0  0  0  0  0  0
    2.4249   -2.3199   -1.4509 O   0  0  0  0  0  0  0  0  0  0  0  0
    4.2585   -2.0733    0.2553 O   0  0  0  0  0  0  0  0  0  0  0  0
    0.4402   -2.3045    0.6272 N   0  0  0  0  0  0  0  0  0  0  0  0
    1.8011   -2.1799    1.0461 N   0  0  0  0  0  0  0  0  0  0  0  0
   -3.0454   -1.3948   -1.5680 N   0  0  0  0  0  0  0  0  0  0  0  0
   -1.5598   -1.0774    0.1899 C   0  0  0  0  0  0  0  0  0  0  0  0
   -2.6133   -0.0936    0.3534 C   0  0  0  0  0  0  0  0  0  0  0  0
   -0.4728   -1.3218    0.9196 C   0  0  0  0  0  0  0  0  0  0  0  0
   -3.4769   -0.3323   -0.7316 C   0  0  0  0  0  0  0  0  0  0  0  0
   -1.9364   -1.8232   -1.0316 C   0  0  0  0  0  0  0  0  0  0  0  0
    2.7315   -0.0303   -0.2433 C   0  0  0  0  0  0  0  0  0  0  0  0
   -2.8605    0.8997    1.2811 C   0  0  0  0  0  0  0  0  0  0  0  0
   -0.1688   -0.5078    2.1525 C   0  0  0  0  0  0  0  0  0  0  0  0
   -4.6174    0.4348   -0.9023 C   0  0  0  0  0  0  0  0  0  0  0  0
   -4.0104    1.6737    1.1098 C   0  0  0  0  0  0  0  0  0  0  0  0
   -4.8805    1.4438    0.0289 C   0  0  0  0  0  0  0  0  0  0  0  0
    3.5399    0.7766    0.5574 C   0  0  0  0  0  0  0  0  0  0  0  0
    1.7830    0.5501   -1.0855 C   0  0  0  0  0  0  0  0  0  0  0  0
    3.3999    2.1637    0.5161 C   0  0  0  0  0  0  0  0  0  0  0  0
    1.6429    1.9372   -1.1269 C   0  0  0  0  0  0  0  0  0  0  0  0
    2.4514    2.7440   -0.3262 C   0  0  0  0  0  0  0  0  0  0  0  0
    0.2679   -2.9423   -0.1399 H   0  0  0  0  0  0  0  0  0  0  0  0
   -1.3276   -2.6460   -1.4268 H   0  0  0  0  0  0  0  0  0  0  0  0
    2.0984   -2.6672    1.8987 H   0  0  0  0  0  0  0  0  0  0  0  0
   -2.2123    1.1157    2.1185 H   0  0  0  0  0  0  0  0  0  0  0  0
   -1.0117   -0.5335    2.8509 H   0  0  0  0  0  0  0  0  0  0  0  0
    0.0719    0.5271    1.8883 H   0  0  0  0  0  0  0  0  0  0  0  0
    0.6753   -0.8913    2.7345 H   0  0  0  0  0  0  0  0  0  0  0  0
   -5.2924    0.2628   -1.7338 H   0  0  0  0  0  0  0  0  0  0  0  0
   -4.2367    2.4663    1.8182 H   0  0  0  0  0  0  0  0  0  0  0  0
   -5.7686    2.0603   -0.0829 H   0  0  0  0  0  0  0  0  0  0  0  0
    4.2796    0.3450    1.2258 H   0  0  0  0  0  0  0  0  0  0  0  0
    1.1410   -0.0590   -1.7154 H   0  0  0  0  0  0  0  0  0  0  0  0
    4.0363    2.7781    1.1478 H   0  0  0  0  0  0  0  0  0  0  0  0
    0.8978    2.3734   -1.7872 H   0  0  0  0  0  0  0  0  0  0  0  0
  1 23  1  0  0  0  0
  2  3  2  0  0  0  0
  2  4  2  0  0  0  0
  2  6  1  0  0  0  0
  2 13  1  0  0  0  0
  5  6  1  0  0  0  0
  5 10  1  0  0  0  0
  5 24  1  0  0  0  0
  6 26  1  0  0  0  0
  7 11  1  0  0  0  0
  7 12  2  0  0  0  0
  8  9  1  0  0  0  0
  8 10  2  0  0  0  0
  8 12  1  0  0  0  0
  9 11  1  0  0  0  0
  9 14  2  0  0  0  0
 10 15  1  0  0  0  0
 11 16  2  0  0  0  0
 12 25  1  0  0  0  0
 13 19  2  0  0  0  0
 13 20  1  0  0  0  0
 14 17  1  0  0  0  0
 14 27  1  0  0  0  0
 15 28  1  0  0  0  0
 15 29  1  0  0  0  0
 15 30  1  0  0  0  0
 16 18  1  0  0  0  0
 16 31  1  0  0  0  0
 17 18  2  0  0  0  0
 17 32  1  0  0  0  0
 18 33  1  0  0  0  0
 19 21  1  0  0  0  0
 19 34  1  0  0  0  0
 20 22  2  0  0  0  0
 20 35  1  0  0  0  0
 21 23  2  0  0  0  0
 21 36  1  0  0  0  0
 22 23  1  0  0  0  0
 22 37  1  0  0  0  0
M  END
> <PUBCHEM_COMPOUND_CID>
24818481

> <PUBCHEM_CONFORMER_RMSD>
0.6

> <PUBCHEM_CONFORMER_DIVERSEORDER>
19
17
64
52
78
82
51
8
67
72
70
85
37
74
15
77
46
27
79
45
65
18
43
83
25
87
11
66
21
86
5
68
10
44
33
14
30
26
57
13
71
54
16
84
35
34
12
2
55
60
32
63
80
22
28
76
49
73
62
81
23
61
7
39
50
4
47
75
59
3
56
58
24
31
1
20
6
38
69
9
40
48
41
42
29
53
36

> <PUBCHEM_MMFF94_PARTIAL_CHARGES>
34
1 -0.11
10 -0.04
11 0.18
12 0.38
13 -0.01
14 -0.15
15 0.14
16 -0.15
17 -0.15
18 -0.15
19 -0.15
2 1.45
20 -0.15
21 -0.15
22 -0.15
23 0.11
24 0.4
25 0.06
26 0.42
27 0.15
3 -0.65
31 0.15
32 0.15
33 0.15
34 0.15
35 0.15
36 0.15
37 0.15
4 -0.65
5 -0.44
6 -0.62
7 -0.63
8 -0.01
9 0.03

> <PUBCHEM_EFFECTIVE_ROTOR_COUNT>
4

> <PUBCHEM_PHARMACOPHORE_FEATURES>
9
1 1 hydrophobe
1 3 acceptor
1 4 acceptor
1 5 donor
1 6 donor
1 7 acceptor
5 7 8 9 11 12 rings
6 13 19 20 21 22 23 rings
6 9 11 14 16 17 18 rings

> <PUBCHEM_HEAVY_ATOM_COUNT>
23

> <PUBCHEM_ATOM_DEF_STEREO_COUNT>
0

> <PUBCHEM_ATOM_UDEF_STEREO_COUNT>
0

> <PUBCHEM_BOND_DEF_STEREO_COUNT>
1

> <PUBCHEM_BOND_UDEF_STEREO_COUNT>
0

> <PUBCHEM_ISOTOPIC_ATOM_COUNT>
0

> <PUBCHEM_COMPONENT_COUNT>
1

> <PUBCHEM_CACTVS_TAUTO_COUNT>
2

> <PUBCHEM_CONFORMER_ID>
017AB33100000013

> <PUBCHEM_MMFF94_ENERGY>
61.5839

> <PUBCHEM_FEATURE_SELFOVERLAP>
47.1

> <PUBCHEM_SHAPE_FINGERPRINT>
11370993 70 18121774204022195840
11640471 11 18342742952613105911
12403260 363 18050274058231788864
12467345 10 18201715124341987207
12633257 1 17969204781104455160
12788726 201 17974301919742950910
13134695 92 18334854983735248798
13583140 156 18115035104404008995
13590594 115 18192997011152492760
14251764 38 18121497118502016192
14790565 3 17974574907907295052
15295992 7 18041290906198472659
17492 89 18343303699291483839
17980427 23 18198596961422362642
18186145 218 18186523176682059275
18335252 114 18192702342505987965
18981168 100 18041851713021281051
19930381 70 18192153922062782321
20567600 299 18342736355728611896
20715895 44 17986955133746414725
21033648 29 17022900100143701621
21041028 32 17466499010714672914
21475661 188 17677047950172178853
21860390 5 18342181046653327228
22393880 68 17988085628999161140
22749437 52 18191865832319425548
23227448 37 18410011035804899231
23559900 14 17060063579755649078
25222932 49 14404027281009941575
345986 75 17244963958127353458
4409770 3 14956902001749943191
474 4 18334572481680800241
5895379 119 17702392753648190272
5939293 188 18408885122965545462
6328613 192 18045220690550187740
6443956 14 18336547123371649892
7399639 24 17685795900446841898
7832392 63 18411139099773898267
81228 2 14865061006277385571
84936 182 18198622322998737848
9971528 1 18270398274846400090
9981440 41 17905884039351685792

> <PUBCHEM_SHAPE_MULTIPOLES>
456.44
8.81
4.02
1.46
5.74
3.19
-0.2
3.39
0.75
-4.78
0.4
0.57
-0.32
-0.88

> <PUBCHEM_SHAPE_SELFOVERLAP>
963.337

> <PUBCHEM_SHAPE_VOLUME>
262.3

> <PUBCHEM_COORDINATE_TYPE>
2
5
10

$$$$
