400634
  -OEChem-01171812163D

 26 28  0     0  0  0  0  0  0999 V2000
   -1.7879   -3.8214   -0.1308 I   0  0  0  0  0  0  0  0  0  0  0  0
   -3.9780   -1.1310   -0.4435 I   0  0  0  0  0  0  0  0  0  0  0  0
    0.4365   -2.7748    0.4501 O   0  0  0  0  0  0  0  0  0  0  0  0
    0.0060    1.3332    0.0078 C   0  0  0  0  0  0  0  0  0  0  0  0
    1.3475    0.6922   -0.0458 C   0  0  0  0  0  0  0  0  0  0  0  0
   -1.1668    0.5402    0.0486 C   0  0  0  0  0  0  0  0  0  0  0  0
    1.4875   -0.7041    0.0785 C   0  0  0  0  0  0  0  0  0  0  0  0
   -1.0361   -0.9349    0.0438 C   0  0  0  0  0  0  0  0  0  0  0  0
    0.3006   -1.5790    0.2166 C   0  0  0  0  0  0  0  0  0  0  0  0
   -0.1526    2.7371    0.0366 C   0  0  0  0  0  0  0  0  0  0  0  0
    2.5385    1.4300   -0.2137 C   0  0  0  0  0  0  0  0  0  0  0  0
   -2.4280    1.1682    0.1254 C   0  0  0  0  0  0  0  0  0  0  0  0
    2.7511   -1.3211    0.0573 C   0  0  0  0  0  0  0  0  0  0  0  0
   -1.4096    3.3405    0.1001 C   0  0  0  0  0  0  0  0  0  0  0  0
   -2.5482    2.5554    0.1456 C   0  0  0  0  0  0  0  0  0  0  0  0
    3.7960    0.8167   -0.2386 C   0  0  0  0  0  0  0  0  0  0  0  0
    3.9025   -0.5588   -0.0990 C   0  0  0  0  0  0  0  0  0  0  0  0
   -2.0589   -1.7885   -0.1391 C   0  0  0  0  0  0  0  0  0  0  0  0
    0.7021    3.4075    0.0270 H   0  0  0  0  0  0  0  0  0  0  0  0
    2.5282    2.5095   -0.3356 H   0  0  0  0  0  0  0  0  0  0  0  0
   -3.2307    0.7729    0.7386 H   0  0  0  0  0  0  0  0  0  0  0  0
    2.8554   -2.3990    0.1532 H   0  0  0  0  0  0  0  0  0  0  0  0
   -1.4903    4.4225    0.1477 H   0  0  0  0  0  0  0  0  0  0  0  0
   -3.5160    3.0196    0.3143 H   0  0  0  0  0  0  0  0  0  0  0  0
    4.6894    1.4208   -0.3684 H   0  0  0  0  0  0  0  0  0  0  0  0
    4.8768   -1.0372   -0.1182 H   0  0  0  0  0  0  0  0  0  0  0  0
  1 18  1  0  0  0  0
  2 18  1  0  0  0  0
  3  9  2  0  0  0  0
  4  5  1  0  0  0  0
  4  6  1  0  0  0  0
  4 10  2  0  0  0  0
  5  7  1  0  0  0  0
  5 11  2  0  0  0  0
  6  8  1  0  0  0  0
  6 12  2  0  0  0  0
  7  9  1  0  0  0  0
  7 13  2  0  0  0  0
  8  9  1  0  0  0  0
  8 18  2  0  0  0  0
 10 14  1  0  0  0  0
 10 19  1  0  0  0  0
 11 16  1  0  0  0  0
 11 20  1  0  0  0  0
 12 15  1  0  0  0  0
 12 21  1  0  0  0  0
 13 17  1  0  0  0  0
 13 22  1  0  0  0  0
 14 15  2  0  0  0  0
 14 23  1  0  0  0  0
 15 24  1  0  0  0  0
 16 17  2  0  0  0  0
 16 25  1  0  0  0  0
 17 26  1  0  0  0  0
M  END
> <PUBCHEM_COMPOUND_CID>
400634

> <PUBCHEM_CONFORMER_RMSD>
0.4

> <PUBCHEM_CONFORMER_DIVERSEORDER>
1

> <PUBCHEM_MMFF94_PARTIAL_CHARGES>
24
1 -0.09
10 -0.15
11 -0.15
12 -0.15
13 -0.15
14 -0.15
15 -0.15
16 -0.15
17 -0.15
18 0.18
19 0.15
2 -0.09
20 0.15
21 0.15
22 0.15
23 0.15
24 0.15
25 0.15
26 0.15
3 -0.57
6 0.03
7 0.09
8 -0.01
9 0.47

> <PUBCHEM_EFFECTIVE_ROTOR_COUNT>
0

> <PUBCHEM_PHARMACOPHORE_FEATURES>
7
1 1 hydrophobe
1 2 hydrophobe
1 3 acceptor
3 1 2 18 hydrophobe
6 4 5 6 7 8 9 rings
6 4 6 10 12 14 15 rings
6 5 7 11 13 16 17 rings

> <PUBCHEM_HEAVY_ATOM_COUNT>
18

> <PUBCHEM_ATOM_DEF_STEREO_COUNT>
0

> <PUBCHEM_ATOM_UDEF_STEREO_COUNT>
0

> <PUBCHEM_BOND_DEF_STEREO_COUNT>
0

> <PUBCHEM_BOND_UDEF_STEREO_COUNT>
0

> <PUBCHEM_ISOTOPIC_ATOM_COUNT>
0

> <PUBCHEM_COMPONENT_COUNT>
1

> <PUBCHEM_CACTVS_TAUTO_COUNT>
1

> <PUBCHEM_CONFORMER_ID>
00061CFA00000001

> <PUBCHEM_MMFF94_ENERGY>
127.3959

> <PUBCHEM_FEATURE_SELFOVERLAP>
36.417

> <PUBCHEM_SHAPE_FINGERPRINT>
10319926 262 18198036189797861914
10411042 1 18050569843992940434
104564 63 18412545396910570271
10693767 8 18058426834205772191
10967382 1 18194401323497218193
1100329 8 18194404613827301955
11680986 33 17908698780612908993
116883 192 18341619230418583278
12173636 292 18267299841893307140
12553582 1 18194970874652167958
12788726 201 18408320007937137810
13027679 85 18266177425689776853
13140716 1 17906171003058775411
138480 1 16537078408502491819
14178342 30 17977928112679273138
14790565 3 18411147926602117785
15042514 8 18410015454851818066
15196674 1 18410573972266562261
15309172 13 18051703148111795041
15442244 35 18264767658520398362
16087824 20 18410858772708619853
16752209 62 18409725153584905959
16945 1 18121778331226927624
193761 8 18122062005300889755
19591789 44 18267028249667609499
20261772 1 18340222803559479577
20510252 161 18342739606807475240
20645477 70 17040620164286698615
20775438 99 16832576003228849567
20905425 154 18270400477568387894
21029758 11 18268706280795398677
21267235 1 18410302427333764014
21501502 16 18337671919281609870
21524375 3 18044943363582495760
221490 88 17543912764168136971
2334 1 18410013272891860816
23402539 116 18270954743150710255
23419403 2 16820747443739908484
23557571 272 18202009841304290892
23558518 356 18262807258851704346
23559900 14 18197211658481595360
238 59 16598969991261245485
2748010 2 18339639065542196016
3091708 16 9057290251439083483
335352 9 18338516451454426175
34934 24 18195519513790350790
350125 39 18266461996905573099
352729 6 18195244408413358627
54173680 148 18410576222987810842
6438718 38 17989490719038954823
7364860 26 17114384195653201235
7832392 63 18124593347609430919
81228 2 18411705425613702113
9709674 26 18342744005286548494

> <PUBCHEM_SHAPE_MULTIPOLES>
388.43
5.94
4.35
0.69
1.64
1.16
-0.03
-2.53
-0.87
-2.57
0.3
-0.14
-0.07
-0.17

> <PUBCHEM_SHAPE_SELFOVERLAP>
826.992

> <PUBCHEM_SHAPE_VOLUME>
222.8

> <PUBCHEM_COORDINATE_TYPE>
2
5
10

$$$$
