2914378
  -OEChem-01171811463D

 46 48  0     0  0  0  0  0  0999 V2000
    2.2952    3.5120    2.1676 F   0  0  0  0  0  0  0  0  0  0  0  0
   -0.7378    1.9498   -1.5666 O   0  0  0  0  0  0  0  0  0  0  0  0
   -2.3460   -2.0808    1.5488 O   0  0  0  0  0  0  0  0  0  0  0  0
    2.6096   -0.4429   -2.6688 O   0  0  0  0  0  0  0  0  0  0  0  0
    1.1020    0.0505   -0.9121 N   0  0  0  0  0  0  0  0  0  0  0  0
    0.2420   -2.1093    0.7574 N   0  0  0  0  0  0  0  0  0  0  0  0
   -0.1784   -0.0592   -0.4395 C   0  0  0  0  0  0  0  0  0  0  0  0
   -0.5613   -1.0821    0.3432 C   0  0  0  0  0  0  0  0  0  0  0  0
   -2.4989    0.9579   -0.3729 C   0  0  0  0  0  0  0  0  0  0  0  0
   -2.9145   -0.0949    0.4387 C   0  0  0  0  0  0  0  0  0  0  0  0
   -1.1084    1.0255   -0.8512 C   0  0  0  0  0  0  0  0  0  0  0  0
   -1.9714   -1.1572    0.8327 C   0  0  0  0  0  0  0  0  0  0  0  0
   -0.0031   -3.4861    0.4231 C   0  0  0  0  0  0  0  0  0  0  0  0
    2.1122    0.7725   -0.1442 C   0  0  0  0  0  0  0  0  0  0  0  0
    1.0300   -4.3940    1.0821 C   0  0  0  0  0  0  0  0  0  0  0  0
   -3.4062    1.9600   -0.7392 C   0  0  0  0  0  0  0  0  0  0  0  0
   -4.2405   -0.1476    0.8869 C   0  0  0  0  0  0  0  0  0  0  0  0
    1.4807   -0.4973   -2.1707 C   0  0  0  0  0  0  0  0  0  0  0  0
   -4.7259    1.9043   -0.2911 C   0  0  0  0  0  0  0  0  0  0  0  0
   -5.1425    0.8520    0.5209 C   0  0  0  0  0  0  0  0  0  0  0  0
    1.6912    1.8028    0.6437 C   0  0  0  0  0  0  0  0  0  0  0  0
    3.4088    0.3682   -0.2673 C   0  0  0  0  0  0  0  0  0  0  0  0
    2.4509   -4.1060    0.6176 C   0  0  0  0  0  0  0  0  0  0  0  0
    0.3849   -1.1683   -2.9728 C   0  0  0  0  0  0  0  0  0  0  0  0
    2.6562    2.4921    1.3779 C   0  0  0  0  0  0  0  0  0  0  0  0
    4.3739    1.0582    0.4662 C   0  0  0  0  0  0  0  0  0  0  0  0
    3.9974    2.1197    1.2893 C   0  0  0  0  0  0  0  0  0  0  0  0
    1.2248   -1.8496    0.7464 H   0  0  0  0  0  0  0  0  0  0  0  0
    0.0358   -3.6198   -0.6642 H   0  0  0  0  0  0  0  0  0  0  0  0
   -0.9929   -3.8182    0.7487 H   0  0  0  0  0  0  0  0  0  0  0  0
    0.7855   -5.4358    0.8438 H   0  0  0  0  0  0  0  0  0  0  0  0
    0.9812   -4.2931    2.1729 H   0  0  0  0  0  0  0  0  0  0  0  0
   -3.1050    2.7908   -1.3716 H   0  0  0  0  0  0  0  0  0  0  0  0
   -4.5908   -0.9576    1.5211 H   0  0  0  0  0  0  0  0  0  0  0  0
   -5.4289    2.6818   -0.5755 H   0  0  0  0  0  0  0  0  0  0  0  0
   -6.1703    0.8094    0.8696 H   0  0  0  0  0  0  0  0  0  0  0  0
    0.6633    2.1271    0.7423 H   0  0  0  0  0  0  0  0  0  0  0  0
    3.7457   -0.5079   -0.8059 H   0  0  0  0  0  0  0  0  0  0  0  0
    2.8197   -3.1463    0.9910 H   0  0  0  0  0  0  0  0  0  0  0  0
    3.1280   -4.8799    0.9943 H   0  0  0  0  0  0  0  0  0  0  0  0
    2.5175   -4.1040   -0.4750 H   0  0  0  0  0  0  0  0  0  0  0  0
    0.8096   -1.5730   -3.8970 H   0  0  0  0  0  0  0  0  0  0  0  0
   -0.3867   -0.4434   -3.2437 H   0  0  0  0  0  0  0  0  0  0  0  0
   -0.0546   -1.9980   -2.4166 H   0  0  0  0  0  0  0  0  0  0  0  0
    5.4156    0.7545    0.4160 H   0  0  0  0  0  0  0  0  0  0  0  0
    4.7479    2.6533    1.8650 H   0  0  0  0  0  0  0  0  0  0  0  0
  1 25  1  0  0  0  0
  2 11  2  0  0  0  0
  3 12  2  0  0  0  0
  4 18  2  0  0  0  0
  5  7  1  0  0  0  0
  5 14  1  0  0  0  0
  5 18  1  0  0  0  0
  6  8  1  0  0  0  0
  6 13  1  0  0  0  0
  6 28  1  0  0  0  0
  7  8  2  0  0  0  0
  7 11  1  0  0  0  0
  8 12  1  0  0  0  0
  9 10  1  0  0  0  0
  9 11  1  0  0  0  0
  9 16  2  0  0  0  0
 10 12  1  0  0  0  0
 10 17  2  0  0  0  0
 13 15  1  0  0  0  0
 13 29  1  0  0  0  0
 13 30  1  0  0  0  0
 14 21  2  0  0  0  0
 14 22  1  0  0  0  0
 15 23  1  0  0  0  0
 15 31  1  0  0  0  0
 15 32  1  0  0  0  0
 16 19  1  0  0  0  0
 16 33  1  0  0  0  0
 17 20  1  0  0  0  0
 17 34  1  0  0  0  0
 18 24  1  0  0  0  0
 19 20  2  0  0  0  0
 19 35  1  0  0  0  0
 20 36  1  0  0  0  0
 21 25  1  0  0  0  0
 21 37  1  0  0  0  0
 22 26  2  0  0  0  0
 22 38  1  0  0  0  0
 23 39  1  0  0  0  0
 23 40  1  0  0  0  0
 23 41  1  0  0  0  0
 24 42  1  0  0  0  0
 24 43  1  0  0  0  0
 24 44  1  0  0  0  0
 25 27  2  0  0  0  0
 26 27  1  0  0  0  0
 26 45  1  0  0  0  0
 27 46  1  0  0  0  0
M  END
> <PUBCHEM_COMPOUND_CID>
2914378

> <PUBCHEM_CONFORMER_RMSD>
0.8

> <PUBCHEM_CONFORMER_DIVERSEORDER>
2
15
39
35
32
36
43
28
42
6
31
9
18
30
33
38
45
48
17
22
44
7
21
5
14
46
37
41
34
26
16
27
25
10
8
24
23
13
47
12
4
1
11
19
20
29
40
3

> <PUBCHEM_MMFF94_PARTIAL_CHARGES>
34
1 -0.19
10 0.09
11 0.47
12 0.47
13 0.37
14 0.12
16 -0.15
17 -0.15
18 0.57
19 -0.15
2 -0.57
20 -0.15
21 -0.15
22 -0.15
24 0.06
25 0.19
26 -0.15
27 -0.15
28 0.4
3 -0.57
33 0.15
34 0.15
35 0.15
36 0.15
37 0.15
38 0.15
4 -0.57
45 0.15
46 0.15
5 -0.29
6 -0.87
7 0.12
8 0.11
9 0.09

> <PUBCHEM_EFFECTIVE_ROTOR_COUNT>
6

> <PUBCHEM_PHARMACOPHORE_FEATURES>
9
1 2 acceptor
1 23 hydrophobe
1 3 acceptor
1 4 acceptor
1 6 cation
1 6 donor
6 14 21 22 25 26 27 rings
6 7 8 9 10 11 12 rings
6 9 10 16 17 19 20 rings

> <PUBCHEM_HEAVY_ATOM_COUNT>
27

> <PUBCHEM_ATOM_DEF_STEREO_COUNT>
0

> <PUBCHEM_ATOM_UDEF_STEREO_COUNT>
0

> <PUBCHEM_BOND_DEF_STEREO_COUNT>
0

> <PUBCHEM_BOND_UDEF_STEREO_COUNT>
0

> <PUBCHEM_ISOTOPIC_ATOM_COUNT>
0

> <PUBCHEM_COMPONENT_COUNT>
1

> <PUBCHEM_CACTVS_TAUTO_COUNT>
3

> <PUBCHEM_CONFORMER_ID>
002C784A00000002

> <PUBCHEM_MMFF94_ENERGY>
115.7201

> <PUBCHEM_FEATURE_SELFOVERLAP>
45.692

> <PUBCHEM_SHAPE_FINGERPRINT>
11582403 64 18130497625960300982
11725454 13 18201714093570915727
12236239 1 14836133113090477044
12422481 6 17605253126433104554
12553582 1 14129323127226960992
12633257 1 18339068406555359480
12788726 201 17103146018628931130
13004483 165 17257918820479252442
13583140 156 18413670218569930463
14178342 30 18188216515141889267
14955137 171 17909264685177542415
15230672 131 18334011719131842170
15475509 84 17475245604576586793
15927050 60 18410852188039257434
17349148 13 17530963640023829055
17980427 26 18341597196930218093
1813 80 15357688661539471112
18681886 176 17605865657088025532
20028762 73 18122913289938014775
20600515 1 18187369873713655981
21033648 29 18340198716945638040
21756936 100 18051121795020394040
22149856 69 17606978188202864533
22956985 138 17241880983088846539
23419403 2 17914087340755214127
23559900 14 17896609375334942087
350125 39 17465110345167278565
474 4 17346319327318158125
5104073 3 18117289052123348849
5265222 85 18116168808540358294
6086070 43 17984137051185212137
7364860 26 18191866721641516979

> <PUBCHEM_SHAPE_MULTIPOLES>
520.8
7.82
4.37
2.02
5.93
4.65
-1.49
-5.3
2.14
-3.81
2.63
-1.3
-0.06
1.77

> <PUBCHEM_SHAPE_SELFOVERLAP>
1136.929

> <PUBCHEM_SHAPE_VOLUME>
284

> <PUBCHEM_COORDINATE_TYPE>
2
5
10

$$$$
