16727376
  -OEChem-01171811583D

 30 32  0     0  0  0  0  0  0999 V2000
   -5.9620   -1.6281   -0.5542 Br  0  0  0  0  0  0  0  0  0  0  0  0
   -0.7948    2.7885    0.4726 O   0  0  0  0  0  0  0  0  0  0  0  0
    0.3780    0.8071    0.4692 N   0  0  0  0  0  0  0  0  0  0  0  0
    1.6654   -1.1961    0.4813 N   0  0  0  0  0  0  0  0  0  0  0  0
   -1.9723   -0.5883    0.0515 C   0  0  0  0  0  0  0  0  0  0  0  0
   -2.0334    0.8076    0.1531 C   0  0  0  0  0  0  0  0  0  0  0  0
    0.4523   -0.5708    0.3707 C   0  0  0  0  0  0  0  0  0  0  0  0
   -0.6820   -1.2684    0.1674 C   0  0  0  0  0  0  0  0  0  0  0  0
   -0.7790    1.5652    0.3774 C   0  0  0  0  0  0  0  0  0  0  0  0
   -3.1510   -1.3113   -0.1601 C   0  0  0  0  0  0  0  0  0  0  0  0
   -3.2559    1.4769    0.0450 C   0  0  0  0  0  0  0  0  0  0  0  0
    2.9105   -0.6796    0.1208 C   0  0  0  0  0  0  0  0  0  0  0  0
   -4.3728   -0.6443   -0.2682 C   0  0  0  0  0  0  0  0  0  0  0  0
   -4.4248    0.7457   -0.1660 C   0  0  0  0  0  0  0  0  0  0  0  0
    4.0575   -1.0837    0.8040 C   0  0  0  0  0  0  0  0  0  0  0  0
    3.0084    0.2402   -0.9232 C   0  0  0  0  0  0  0  0  0  0  0  0
    5.3024   -0.5680    0.4433 C   0  0  0  0  0  0  0  0  0  0  0  0
    4.2533    0.7558   -1.2841 C   0  0  0  0  0  0  0  0  0  0  0  0
    5.4002    0.3516   -0.6008 C   0  0  0  0  0  0  0  0  0  0  0  0
   -0.6678   -2.3510    0.0836 H   0  0  0  0  0  0  0  0  0  0  0  0
    1.2429    1.3060    0.6523 H   0  0  0  0  0  0  0  0  0  0  0  0
    1.6498   -2.1796    0.7298 H   0  0  0  0  0  0  0  0  0  0  0  0
   -3.1149   -2.3960   -0.2406 H   0  0  0  0  0  0  0  0  0  0  0  0
   -3.3171    2.5587    0.1218 H   0  0  0  0  0  0  0  0  0  0  0  0
   -5.3703    1.2759   -0.2487 H   0  0  0  0  0  0  0  0  0  0  0  0
    3.9938   -1.7996    1.6196 H   0  0  0  0  0  0  0  0  0  0  0  0
    2.1428    0.5528   -1.5008 H   0  0  0  0  0  0  0  0  0  0  0  0
    6.1955   -0.8828    0.9751 H   0  0  0  0  0  0  0  0  0  0  0  0
    4.3310    1.4660   -2.1021 H   0  0  0  0  0  0  0  0  0  0  0  0
    6.3697    0.7517   -0.8830 H   0  0  0  0  0  0  0  0  0  0  0  0
  1 13  1  0  0  0  0
  2  9  2  0  0  0  0
  3  7  1  0  0  0  0
  3  9  1  0  0  0  0
  3 21  1  0  0  0  0
  4  7  1  0  0  0  0
  4 12  1  0  0  0  0
  4 22  1  0  0  0  0
  5  6  2  0  0  0  0
  5  8  1  0  0  0  0
  5 10  1  0  0  0  0
  6  9  1  0  0  0  0
  6 11  1  0  0  0  0
  7  8  2  0  0  0  0
  8 20  1  0  0  0  0
 10 13  2  0  0  0  0
 10 23  1  0  0  0  0
 11 14  2  0  0  0  0
 11 24  1  0  0  0  0
 12 15  2  0  0  0  0
 12 16  1  0  0  0  0
 13 14  1  0  0  0  0
 14 25  1  0  0  0  0
 15 17  1  0  0  0  0
 15 26  1  0  0  0  0
 16 18  2  0  0  0  0
 16 27  1  0  0  0  0
 17 19  2  0  0  0  0
 17 28  1  0  0  0  0
 18 19  1  0  0  0  0
 18 29  1  0  0  0  0
 19 30  1  0  0  0  0
M  END
> <PUBCHEM_COMPOUND_CID>
16727376

> <PUBCHEM_CONFORMER_RMSD>
0.6

> <PUBCHEM_CONFORMER_DIVERSEORDER>
1
3
5
8
6
4
7
10
2
9

> <PUBCHEM_MMFF94_PARTIAL_CHARGES>
30
1 -0.11
10 -0.15
11 -0.15
12 0.1
13 0.11
14 -0.15
15 -0.15
16 -0.15
17 -0.15
18 -0.15
19 -0.15
2 -0.57
20 0.15
21 0.37
22 0.4
23 0.15
24 0.15
25 0.15
26 0.15
27 0.15
28 0.15
29 0.15
3 -0.54
30 0.15
4 -0.6
5 0.03
6 0.09
7 0.21
8 -0.18
9 0.54

> <PUBCHEM_EFFECTIVE_ROTOR_COUNT>
2

> <PUBCHEM_PHARMACOPHORE_FEATURES>
8
1 1 hydrophobe
1 2 acceptor
1 3 donor
1 4 cation
1 4 donor
6 12 15 16 17 18 19 rings
6 3 5 6 7 8 9 rings
6 5 6 10 11 13 14 rings

> <PUBCHEM_HEAVY_ATOM_COUNT>
19

> <PUBCHEM_ATOM_DEF_STEREO_COUNT>
0

> <PUBCHEM_ATOM_UDEF_STEREO_COUNT>
0

> <PUBCHEM_BOND_DEF_STEREO_COUNT>
0

> <PUBCHEM_BOND_UDEF_STEREO_COUNT>
0

> <PUBCHEM_ISOTOPIC_ATOM_COUNT>
0

> <PUBCHEM_COMPONENT_COUNT>
1

> <PUBCHEM_CACTVS_TAUTO_COUNT>
6

> <PUBCHEM_CONFORMER_ID>
00FF3D5000000001

> <PUBCHEM_MMFF94_ENERGY>
65.0521

> <PUBCHEM_FEATURE_SELFOVERLAP>
40.655

> <PUBCHEM_SHAPE_FINGERPRINT>
10090160 65 18040433274154533298
10498660 4 18340208501160205820
10595046 47 18334295366222527974
10906281 52 18339941346042238491
11963148 33 18271517693448127823
12107183 9 17468749698358051930
12119455 92 14634589375985972866
12166972 35 17967254208663657300
12236239 1 18186800266544451434
12403814 3 17676488311474752589
128620 24 18413672396318543254
13288520 33 18343863334146486167
13533116 47 18187078426318398898
13740256 8 18339079410583461083
13862211 1 18341608248414157863
14528608 73 18333454261565756244
14787075 74 18333452053778713619
14790565 3 17693664719206100369
15196674 1 18409729530177653624
17349148 13 18114181904612669122
17492 89 18266739069826414890
17834072 33 18334574667819322823
18681886 176 18411135849454105730
200 152 18333730217045403990
20300324 65 18341614802069651177
20511986 3 18115010974886933892
20871999 31 18408316679891383997
21029758 27 18409168844336719985
21033648 29 14851878201141109886
21267235 1 18412830218009994675
2297311 6 18131639967186263476
23402539 116 18411976944856207622
23522609 53 18195276453777082921
23557571 272 18060427901768946686
23558518 356 17977110063138167443
23559900 14 18340762728082827224
3004659 81 18259983756542518274
329604 57 18262241122343655795
335352 9 18413102880351793023
34797466 226 17632021952508245428
4325135 7 18407760347786409214
4340502 62 16515694299412754809
4409770 3 15591592932836429934
4463277 17 18412545418759927209
474 4 17385733521350616316
5104073 3 18408886200775425962
542803 24 17967253091824375694
67856867 119 18261109716800592108
7164475 11 18264206916158717452
7495541 125 18130782378387006984
8863177 126 17973450098985254371
9709674 26 18337680715449193234

> <PUBCHEM_SHAPE_MULTIPOLES>
381.12
12.83
1.87
0.88
2.43
0.83
-0.15
-3.79
-2.68
-1.53
0.23
0.66
0.02
-1.08

> <PUBCHEM_SHAPE_SELFOVERLAP>
826.282

> <PUBCHEM_SHAPE_VOLUME>
213

> <PUBCHEM_COORDINATE_TYPE>
2
5
10

$$$$
