664821
  -OEChem-01171811373D

 49 53  0     1  0  0  0  0  0999 V2000
   -5.4961    1.5808   -0.1765 S   0  0  0  0  0  0  0  0  0  0  0  0
    4.8164    1.0204    0.5880 O   0  0  0  0  0  0  0  0  0  0  0  0
    2.1974    1.8639    0.0230 O   0  0  0  0  0  0  0  0  0  0  0  0
    0.8241    3.6710    0.4071 O   0  0  0  0  0  0  0  0  0  0  0  0
   -2.0428    0.5464    0.9312 N   0  0  0  0  0  0  0  0  0  0  0  0
   -1.4728   -1.7956    0.7079 N   0  0  0  0  0  0  0  0  0  0  0  0
    1.1235   -0.7487    0.1596 N   0  0  0  0  0  0  0  0  0  0  0  0
   -2.0003    2.9126    1.0176 N   0  0  0  0  0  0  0  0  0  0  0  0
    4.5390    1.9130   -0.5042 C   0  0  1  0  0  0  0  0  0  0  0  0
    4.3849    1.0386   -1.7366 C   0  0  0  0  0  0  0  0  0  0  0  0
    5.3679   -0.0672   -1.4451 C   0  0  0  0  0  0  0  0  0  0  0  0
    5.1950   -0.2544    0.0473 C   0  0  0  0  0  0  0  0  0  0  0  0
    3.3079    2.7415   -0.1923 C   0  0  0  0  0  0  0  0  0  0  0  0
   -0.0477    1.4544    0.5152 C   0  0  0  0  0  0  0  0  0  0  0  0
   -1.1803   -0.4877    0.6938 C   0  0  0  0  0  0  0  0  0  0  0  0
    0.0662    0.0481    0.4322 C   0  0  0  0  0  0  0  0  0  0  0  0
   -1.3628    1.7353    0.8252 C   0  0  0  0  0  0  0  0  0  0  0  0
   -3.4485    0.3961    1.2439 C   0  0  0  0  0  0  0  0  0  0  0  0
    0.9824    2.4352    0.3210 C   0  0  0  0  0  0  0  0  0  0  0  0
   -0.4221   -2.5837    0.4374 C   0  0  0  0  0  0  0  0  0  0  0  0
   -4.2913    0.3942   -0.0027 C   0  0  0  0  0  0  0  0  0  0  0  0
    0.8663   -2.0647    0.1648 C   0  0  0  0  0  0  0  0  0  0  0  0
   -0.6075   -3.9629    0.4242 C   0  0  0  0  0  0  0  0  0  0  0  0
    1.9047   -2.9503   -0.1073 C   0  0  0  0  0  0  0  0  0  0  0  0
   -4.2171   -0.4665   -1.0554 C   0  0  0  0  0  0  0  0  0  0  0  0
    0.4422   -4.8378    0.1502 C   0  0  0  0  0  0  0  0  0  0  0  0
    1.7035   -4.3294   -0.1170 C   0  0  0  0  0  0  0  0  0  0  0  0
   -5.1847   -0.1475   -2.0515 C   0  0  0  0  0  0  0  0  0  0  0  0
   -5.9474    0.9447   -1.7009 C   0  0  0  0  0  0  0  0  0  0  0  0
    5.4094    2.5710   -0.6146 H   0  0  0  0  0  0  0  0  0  0  0  0
    4.6010    1.5751   -2.6648 H   0  0  0  0  0  0  0  0  0  0  0  0
    3.3776    0.6138   -1.8168 H   0  0  0  0  0  0  0  0  0  0  0  0
    5.1833   -0.9824   -2.0136 H   0  0  0  0  0  0  0  0  0  0  0  0
    6.3868    0.2734   -1.6644 H   0  0  0  0  0  0  0  0  0  0  0  0
    4.3914   -0.9589    0.2742 H   0  0  0  0  0  0  0  0  0  0  0  0
    6.1102   -0.6029    0.5340 H   0  0  0  0  0  0  0  0  0  0  0  0
    3.0830    3.4229   -1.0201 H   0  0  0  0  0  0  0  0  0  0  0  0
    3.4725    3.3172    0.7255 H   0  0  0  0  0  0  0  0  0  0  0  0
   -3.7374    1.1699    1.9629 H   0  0  0  0  0  0  0  0  0  0  0  0
   -3.5756   -0.5597    1.7677 H   0  0  0  0  0  0  0  0  0  0  0  0
   -2.9923    2.9888    1.2153 H   0  0  0  0  0  0  0  0  0  0  0  0
   -1.5093    3.7988    0.9471 H   0  0  0  0  0  0  0  0  0  0  0  0
   -1.5917   -4.3795    0.6312 H   0  0  0  0  0  0  0  0  0  0  0  0
    2.8997   -2.5729   -0.3288 H   0  0  0  0  0  0  0  0  0  0  0  0
   -3.5227   -1.2922   -1.1329 H   0  0  0  0  0  0  0  0  0  0  0  0
    0.2713   -5.9099    0.1455 H   0  0  0  0  0  0  0  0  0  0  0  0
    2.5296   -4.9995   -0.3344 H   0  0  0  0  0  0  0  0  0  0  0  0
   -5.3158   -0.6924   -2.9773 H   0  0  0  0  0  0  0  0  0  0  0  0
   -6.7482    1.3993   -2.2669 H   0  0  0  0  0  0  0  0  0  0  0  0
  1 21  1  0  0  0  0
  1 29  1  0  0  0  0
  2  9  1  0  0  0  0
  2 12  1  0  0  0  0
  3 13  1  0  0  0  0
  3 19  1  0  0  0  0
  4 19  2  0  0  0  0
  5 15  1  0  0  0  0
  5 17  1  0  0  0  0
  5 18  1  0  0  0  0
  6 15  2  0  0  0  0
  6 20  1  0  0  0  0
  7 16  2  0  0  0  0
  7 22  1  0  0  0  0
  8 17  1  0  0  0  0
  8 41  1  0  0  0  0
  8 42  1  0  0  0  0
  9 10  1  0  0  0  0
  9 13  1  0  0  0  0
  9 30  1  0  0  0  0
 10 11  1  0  0  0  0
 10 31  1  0  0  0  0
 10 32  1  0  0  0  0
 11 12  1  0  0  0  0
 11 33  1  0  0  0  0
 11 34  1  0  0  0  0
 12 35  1  0  0  0  0
 12 36  1  0  0  0  0
 13 37  1  0  0  0  0
 13 38  1  0  0  0  0
 14 16  1  0  0  0  0
 14 17  2  0  0  0  0
 14 19  1  0  0  0  0
 15 16  1  0  0  0  0
 18 21  1  0  0  0  0
 18 39  1  0  0  0  0
 18 40  1  0  0  0  0
 20 22  1  0  0  0  0
 20 23  2  0  0  0  0
 21 25  2  0  0  0  0
 22 24  2  0  0  0  0
 23 26  1  0  0  0  0
 23 43  1  0  0  0  0
 24 27  1  0  0  0  0
 24 44  1  0  0  0  0
 25 28  1  0  0  0  0
 25 45  1  0  0  0  0
 26 27  2  0  0  0  0
 26 46  1  0  0  0  0
 27 47  1  0  0  0  0
 28 29  2  0  0  0  0
 28 48  1  0  0  0  0
 29 49  1  0  0  0  0
M  END
> <PUBCHEM_COMPOUND_CID>
664821

> <PUBCHEM_CONFORMER_RMSD>
1

> <PUBCHEM_CONFORMER_DIVERSEORDER>
1
272
531
554
73
76
494
83
270
278
498
130
182
217
153
613
315
614
100
377
609
132
404
515
188
9
394
414
40
636
331
513
94
400
81
64
564
323
16
481
246
236
610
635
32
637
326
358
283
131
53
539
599
13
355
395
90
429
556
91
313
99
234
148
485
5
157
547
30
3
387
245
463
384
17
268
468
538
135
348
221
244
391
211
142
6
37
71
501
260
49
10
118
265
264
346
449
406
420
4
357
24
11
475
542
356
27
403
109
43
175
96
50
19
26
237
126
436
482
46
67
302
321
275
56
66
212
77
7
433
439
74
160
12

> <PUBCHEM_MMFF94_PARTIAL_CHARGES>
36
1 -0.08
12 0.28
13 0.28
14 -0.09
15 0.11
16 0.26
17 -0.07
18 0.44
19 0.81
2 -0.56
20 0.31
21 -0.14
22 0.31
23 -0.15
24 -0.15
25 -0.15
26 -0.15
27 -0.15
28 -0.15
29 -0.11
3 -0.43
4 -0.57
41 0.4
42 0.4
43 0.15
44 0.15
45 0.15
46 0.15
47 0.15
48 0.15
49 0.15
5 0.05
6 -0.57
7 -0.57
8 -0.88
9 0.28

> <PUBCHEM_EFFECTIVE_ROTOR_COUNT>
7

> <PUBCHEM_PHARMACOPHORE_FEATURES>
11
1 2 acceptor
1 4 acceptor
1 7 acceptor
1 8 cation
1 8 donor
3 5 6 15 cation
5 1 21 25 28 29 rings
5 2 9 10 11 12 rings
5 5 14 15 16 17 rings
6 20 22 23 24 26 27 rings
6 6 7 15 16 20 22 rings

> <PUBCHEM_HEAVY_ATOM_COUNT>
29

> <PUBCHEM_ATOM_DEF_STEREO_COUNT>
0

> <PUBCHEM_ATOM_UDEF_STEREO_COUNT>
1

> <PUBCHEM_BOND_DEF_STEREO_COUNT>
0

> <PUBCHEM_BOND_UDEF_STEREO_COUNT>
0

> <PUBCHEM_ISOTOPIC_ATOM_COUNT>
0

> <PUBCHEM_COMPONENT_COUNT>
1

> <PUBCHEM_CACTVS_TAUTO_COUNT>
4

> <PUBCHEM_CONFORMER_ID>
000A24F500000001

> <PUBCHEM_MMFF94_ENERGY>
61.5799

> <PUBCHEM_FEATURE_SELFOVERLAP>
55.995

> <PUBCHEM_SHAPE_FINGERPRINT>
105312 117 18041558152117161261
10693767 8 18060128834690945615
11135609 187 18410289207355978632
11135926 11 18411416177431922719
11513181 2 17913216356027243334
11578080 2 16805326552763552635
11991303 11 17750239260794105563
12035759 4 18272646853075456229
12202916 173 18131635574236599742
12422481 6 17095519595456467662
13140716 1 18125457533340921793
13642711 20 18411416206811269279
138480 1 17689448087564572914
13911987 19 18335431182971740508
14117953 113 18336823088184959662
14508225 48 17689709762620930975
14784336 7 18060132145926107880
14790565 3 18411147921726811129
14931854 50 18339379470041430718
15328829 1 17560252345113211305
15403338 16 17024292038846553322
15664445 248 17912089339513644031
15927050 60 17548147632392887556
19591789 44 18123202456583474371
19930381 70 18049452452595055378
20028762 73 18200871786724663206
21279426 13 18410859888429432804
21344244 246 18411131420699882127
21521239 73 18131060584893696453
21859007 373 18042383829748226564
22393880 68 18200861972803597461
22440779 20 16521343826232321954
23559900 14 17907009573996215626
25147074 1 17915463792539186601
266924 1 18058733486153755073
3027735 51 18339646620532666136
3117164 225 9366761015134367269
3298306 158 18408041818541940366
340366 18 18042411407616689644
38695281 34 18410572894493833447
3882209 13 17395832298996761770
4058900 60 18113900408229583395
4409770 3 17832984223807180931
46194498 28 18044352965368753741
484989 97 18265619977268318835
532947 4 18339368469760188458
563151 97 18339651039880258888
57307002 29 18118149028850069198
59755656 215 18410855426175164141
6371009 1 18338513037503908842
9961470 85 18340476859987595378

> <PUBCHEM_SHAPE_MULTIPOLES>
563.12
11.35
5.27
1.31
3.52
6.12
-0.6
-7.07
-6.54
-3.55
0.86
0.97
-0.34
-0.4

> <PUBCHEM_SHAPE_SELFOVERLAP>
1241.878

> <PUBCHEM_SHAPE_VOLUME>
307.2

> <PUBCHEM_COORDINATE_TYPE>
2
5
10

$$$$
