4115206
  -OEChem-01171812033D

 46 47  0     0  0  0  0  0  0999 V2000
    6.2735    0.3670   -3.1205 Cl  0  0  0  0  0  0  0  0  0  0  0  0
    2.3456    0.0765    1.7407 S   0  0  0  0  0  0  0  0  0  0  0  0
    2.3338   -1.3238    2.1369 O   0  0  0  0  0  0  0  0  0  0  0  0
    2.7406    1.0995    2.6967 O   0  0  0  0  0  0  0  0  0  0  0  0
   -3.6420    2.7322    0.3032 O   0  0  0  0  0  0  0  0  0  0  0  0
   -5.9625   -0.8835   -0.8966 O   0  0  0  0  0  0  0  0  0  0  0  0
   -1.7168   -2.8183   -0.2572 O   0  0  0  0  0  0  0  0  0  0  0  0
    0.2023   -1.7850    0.6405 N   0  0  0  0  0  0  0  0  0  0  0  0
   -3.7212    0.8972   -1.1124 N   0  0  0  0  0  0  0  0  0  0  0  0
    0.7460    0.5221    1.1836 C   0  0  0  0  0  0  0  0  0  0  0  0
   -0.1468   -0.4332    0.6984 C   0  0  0  0  0  0  0  0  0  0  0  0
    3.4574    0.1589    0.3646 C   0  0  0  0  0  0  0  0  0  0  0  0
    0.3723    1.8651    1.2320 C   0  0  0  0  0  0  0  0  0  0  0  0
   -1.7874    1.2973    0.3099 C   0  0  0  0  0  0  0  0  0  0  0  0
   -1.4136   -0.0457    0.2614 C   0  0  0  0  0  0  0  0  0  0  0  0
   -0.8945    2.2527    0.7953 C   0  0  0  0  0  0  0  0  0  0  0  0
   -3.1082    1.7020   -0.1450 C   0  0  0  0  0  0  0  0  0  0  0  0
    3.6468   -0.9671   -0.4150 C   0  0  0  0  0  0  0  0  0  0  0  0
    4.1122    1.3472    0.0995 C   0  0  0  0  0  0  0  0  0  0  0  0
   -5.0199    1.1795   -1.6802 C   0  0  0  0  0  0  0  0  0  0  0  0
    4.5225   -0.9023   -1.4987 C   0  0  0  0  0  0  0  0  0  0  0  0
    4.9879    1.4118   -0.9843 C   0  0  0  0  0  0  0  0  0  0  0  0
   -0.5733   -2.8579    0.1852 C   0  0  0  0  0  0  0  0  0  0  0  0
    5.1930    0.2871   -1.7836 C   0  0  0  0  0  0  0  0  0  0  0  0
   -6.1323    0.5279   -0.8791 C   0  0  0  0  0  0  0  0  0  0  0  0
    0.1704   -4.1660    0.2868 C   0  0  0  0  0  0  0  0  0  0  0  0
   -6.9860   -1.5409   -0.1622 C   0  0  0  0  0  0  0  0  0  0  0  0
    1.0510    2.6319    1.5947 H   0  0  0  0  0  0  0  0  0  0  0  0
   -2.1498   -0.7585   -0.0705 H   0  0  0  0  0  0  0  0  0  0  0  0
   -1.1639    3.3049    0.8351 H   0  0  0  0  0  0  0  0  0  0  0  0
    1.1325   -2.0274    0.9630 H   0  0  0  0  0  0  0  0  0  0  0  0
    3.1347   -1.9027   -0.2166 H   0  0  0  0  0  0  0  0  0  0  0  0
    3.9599    2.2344    0.7060 H   0  0  0  0  0  0  0  0  0  0  0  0
   -3.2278    0.1025   -1.5040 H   0  0  0  0  0  0  0  0  0  0  0  0
   -5.0054    0.7849   -2.7015 H   0  0  0  0  0  0  0  0  0  0  0  0
   -5.1676    2.2632   -1.7242 H   0  0  0  0  0  0  0  0  0  0  0  0
    4.6719   -1.7863   -2.1134 H   0  0  0  0  0  0  0  0  0  0  0  0
    5.5025    2.3458   -1.1953 H   0  0  0  0  0  0  0  0  0  0  0  0
   -6.1143    0.8850    0.1575 H   0  0  0  0  0  0  0  0  0  0  0  0
   -7.1003    0.7847   -1.3242 H   0  0  0  0  0  0  0  0  0  0  0  0
    1.0710   -4.1282   -0.3326 H   0  0  0  0  0  0  0  0  0  0  0  0
   -0.4670   -4.9832   -0.0619 H   0  0  0  0  0  0  0  0  0  0  0  0
    0.4502   -4.3536    1.3274 H   0  0  0  0  0  0  0  0  0  0  0  0
   -6.8064   -2.6183   -0.2105 H   0  0  0  0  0  0  0  0  0  0  0  0
   -7.9672   -1.3307   -0.5987 H   0  0  0  0  0  0  0  0  0  0  0  0
   -6.9652   -1.2305    0.8869 H   0  0  0  0  0  0  0  0  0  0  0  0
  1 24  1  0  0  0  0
  2  3  2  0  0  0  0
  2  4  2  0  0  0  0
  2 10  1  0  0  0  0
  2 12  1  0  0  0  0
  5 17  2  0  0  0  0
  6 25  1  0  0  0  0
  6 27  1  0  0  0  0
  7 23  2  0  0  0  0
  8 11  1  0  0  0  0
  8 23  1  0  0  0  0
  8 31  1  0  0  0  0
  9 17  1  0  0  0  0
  9 20  1  0  0  0  0
  9 34  1  0  0  0  0
 10 11  2  0  0  0  0
 10 13  1  0  0  0  0
 11 15  1  0  0  0  0
 12 18  2  0  0  0  0
 12 19  1  0  0  0  0
 13 16  2  0  0  0  0
 13 28  1  0  0  0  0
 14 15  2  0  0  0  0
 14 16  1  0  0  0  0
 14 17  1  0  0  0  0
 15 29  1  0  0  0  0
 16 30  1  0  0  0  0
 18 21  1  0  0  0  0
 18 32  1  0  0  0  0
 19 22  2  0  0  0  0
 19 33  1  0  0  0  0
 20 25  1  0  0  0  0
 20 35  1  0  0  0  0
 20 36  1  0  0  0  0
 21 24  2  0  0  0  0
 21 37  1  0  0  0  0
 22 24  1  0  0  0  0
 22 38  1  0  0  0  0
 23 26  1  0  0  0  0
 25 39  1  0  0  0  0
 25 40  1  0  0  0  0
 26 41  1  0  0  0  0
 26 42  1  0  0  0  0
 26 43  1  0  0  0  0
 27 44  1  0  0  0  0
 27 45  1  0  0  0  0
 27 46  1  0  0  0  0
M  END
> <PUBCHEM_COMPOUND_CID>
4115206

> <PUBCHEM_CONFORMER_RMSD>
1

> <PUBCHEM_CONFORMER_DIVERSEORDER>
1
7
22
15
9
11
19
5
24
6
16
4
21
17
14
8
20
10
23
3
13
2
12
18

> <PUBCHEM_MMFF94_PARTIAL_CHARGES>
36
1 -0.18
10 -0.01
11 0.12
12 -0.01
13 -0.15
14 0.09
15 -0.15
16 -0.15
17 0.54
18 -0.15
19 -0.15
2 1.32
20 0.3
21 -0.15
22 -0.15
23 0.57
24 0.18
25 0.28
26 0.06
27 0.28
28 0.15
29 0.15
3 -0.65
30 0.15
31 0.37
32 0.15
33 0.15
34 0.37
37 0.15
38 0.15
4 -0.65
5 -0.57
6 -0.56
7 -0.57
8 -0.55
9 -0.73

> <PUBCHEM_EFFECTIVE_ROTOR_COUNT>
9

> <PUBCHEM_PHARMACOPHORE_FEATURES>
9
1 3 acceptor
1 4 acceptor
1 5 acceptor
1 6 acceptor
1 7 acceptor
1 8 donor
1 9 donor
6 10 11 13 14 15 16 rings
6 12 18 19 21 22 24 rings

> <PUBCHEM_HEAVY_ATOM_COUNT>
27

> <PUBCHEM_ATOM_DEF_STEREO_COUNT>
0

> <PUBCHEM_ATOM_UDEF_STEREO_COUNT>
0

> <PUBCHEM_BOND_DEF_STEREO_COUNT>
0

> <PUBCHEM_BOND_UDEF_STEREO_COUNT>
0

> <PUBCHEM_ISOTOPIC_ATOM_COUNT>
0

> <PUBCHEM_COMPONENT_COUNT>
1

> <PUBCHEM_CACTVS_TAUTO_COUNT>
4

> <PUBCHEM_CONFORMER_ID>
003ECB0600000001

> <PUBCHEM_MMFF94_ENERGY>
61.0738

> <PUBCHEM_FEATURE_SELFOVERLAP>
45.691

> <PUBCHEM_SHAPE_FINGERPRINT>
10498660 4 18113625581889146640
11488393 25 17916311537310876399
11961588 58 18113339734429662608
13257819 37 18334303084089290375
13782708 43 14260768651854301645
14251757 5 18264775539416361687
14528608 73 17822008692337788557
14840074 17 17676210152186518677
15475509 35 12893629309180958149
17492 54 18113902649707120285
17852330 162 18264502844470701596
20567600 234 13840273584805112885
20775438 99 17843375609263797452
21344244 181 17918278679196873959
21781051 124 18334859428599418475
21814621 53 15554445219690801835
22182313 1 17916582201933069362
23366157 5 17757262692011448619
23559900 14 18273501191592350360
2838139 119 16443062759793951020
345986 75 11959735915215953276
3472631 163 17023477429584294172
437795 70 18128814334262926879
484989 97 18411425002962754522
563151 40 17914918451893747609
56616090 284 17988928846922052800
58260988 647 16630256860685208382
6036956 94 16092649843210980524

> <PUBCHEM_SHAPE_MULTIPOLES>
522.06
14.34
3.19
2.14
10.52
3.11
-0.32
-2.01
-12.25
2.14
0.56
-3.39
-0.51
0.02

> <PUBCHEM_SHAPE_SELFOVERLAP>
1077.297

> <PUBCHEM_SHAPE_VOLUME>
300.1

> <PUBCHEM_COORDINATE_TYPE>
2
5
10

$$$$
