3759952
  -OEChem-01171811443D

 47 49  0     1  0  0  0  0  0999 V2000
   -1.4297   -2.8395    0.3800 O   0  0  0  0  0  0  0  0  0  0  0  0
   -0.2545    2.6335   -0.4447 O   0  0  0  0  0  0  0  0  0  0  0  0
   -0.5467   -1.6452   -1.3893 O   0  0  0  0  0  0  0  0  0  0  0  0
   -6.5920    1.6094   -0.6134 O   0  0  0  0  0  0  0  0  0  0  0  0
    7.3386   -0.6146   -0.5898 O   0  0  0  0  0  0  0  0  0  0  0  0
   -1.2133    0.5920    0.2767 N   0  0  0  0  0  0  0  0  0  0  0  0
    2.2785    1.5049    0.3211 N   0  0  0  0  0  0  0  0  0  0  0  0
   -0.6851   -0.6590    0.8081 C   0  0  1  0  0  0  0  0  0  0  0  0
    0.7833   -0.3589    0.8665 C   0  0  0  0  0  0  0  0  0  0  0  0
    1.0974    0.8607    0.4299 C   0  0  0  0  0  0  0  0  0  0  0  0
   -1.2636   -1.0392    2.1643 C   0  0  0  0  0  0  0  0  0  0  0  0
   -0.1728    1.5070    0.0203 C   0  0  0  0  0  0  0  0  0  0  0  0
   -0.8658   -1.7488   -0.2127 C   0  0  0  0  0  0  0  0  0  0  0  0
   -2.5642    0.8481    0.0530 C   0  0  0  0  0  0  0  0  0  0  0  0
   -3.0564    2.1503    0.1547 C   0  0  0  0  0  0  0  0  0  0  0  0
   -3.4291   -0.1979   -0.2731 C   0  0  0  0  0  0  0  0  0  0  0  0
    3.5605    0.9673    0.0907 C   0  0  0  0  0  0  0  0  0  0  0  0
   -4.4094    2.4059   -0.0689 C   0  0  0  0  0  0  0  0  0  0  0  0
   -4.7821    0.0575   -0.4968 C   0  0  0  0  0  0  0  0  0  0  0  0
   -1.6596   -3.9580   -0.4826 C   0  0  0  0  0  0  0  0  0  0  0  0
   -5.2722    1.3594   -0.3946 C   0  0  0  0  0  0  0  0  0  0  0  0
    4.6894    1.6097    0.6009 C   0  0  0  0  0  0  0  0  0  0  0  0
    3.7031   -0.2077   -0.6485 C   0  0  0  0  0  0  0  0  0  0  0  0
   -2.2850   -5.0791    0.3196 C   0  0  0  0  0  0  0  0  0  0  0  0
    5.9585    1.0781    0.3723 C   0  0  0  0  0  0  0  0  0  0  0  0
    4.9722   -0.7394   -0.8771 C   0  0  0  0  0  0  0  0  0  0  0  0
    6.1000   -0.0965   -0.3667 C   0  0  0  0  0  0  0  0  0  0  0  0
    1.5059   -1.0721    1.2435 H   0  0  0  0  0  0  0  0  0  0  0  0
   -2.3331   -1.2732    2.1227 H   0  0  0  0  0  0  0  0  0  0  0  0
   -0.7507   -1.9055    2.6003 H   0  0  0  0  0  0  0  0  0  0  0  0
   -1.1533   -0.2129    2.8779 H   0  0  0  0  0  0  0  0  0  0  0  0
    2.2362    2.5183    0.3534 H   0  0  0  0  0  0  0  0  0  0  0  0
   -2.4300    2.9874    0.4458 H   0  0  0  0  0  0  0  0  0  0  0  0
   -3.1322   -1.2280   -0.3805 H   0  0  0  0  0  0  0  0  0  0  0  0
   -4.7875    3.4206    0.0207 H   0  0  0  0  0  0  0  0  0  0  0  0
   -5.4446   -0.7655   -0.7518 H   0  0  0  0  0  0  0  0  0  0  0  0
   -2.3344   -3.6617   -1.2934 H   0  0  0  0  0  0  0  0  0  0  0  0
   -0.7067   -4.2933   -0.9069 H   0  0  0  0  0  0  0  0  0  0  0  0
    4.5917    2.5252    1.1788 H   0  0  0  0  0  0  0  0  0  0  0  0
    2.8467   -0.7204   -1.0777 H   0  0  0  0  0  0  0  0  0  0  0  0
   -2.4745   -5.9526   -0.3104 H   0  0  0  0  0  0  0  0  0  0  0  0
   -1.6293   -5.3739    1.1455 H   0  0  0  0  0  0  0  0  0  0  0  0
   -3.2302   -4.7523    0.7655 H   0  0  0  0  0  0  0  0  0  0  0  0
    6.8291    1.5885    0.7754 H   0  0  0  0  0  0  0  0  0  0  0  0
    5.0766   -1.6520   -1.4575 H   0  0  0  0  0  0  0  0  0  0  0  0
   -7.0399    0.7727   -0.8268 H   0  0  0  0  0  0  0  0  0  0  0  0
    8.0008   -0.0422   -0.1655 H   0  0  0  0  0  0  0  0  0  0  0  0
  1 13  1  0  0  0  0
  1 20  1  0  0  0  0
  2 12  2  0  0  0  0
  3 13  2  0  0  0  0
  4 21  1  0  0  0  0
  4 46  1  0  0  0  0
  5 27  1  0  0  0  0
  5 47  1  0  0  0  0
  6  8  1  0  0  0  0
  6 12  1  0  0  0  0
  6 14  1  0  0  0  0
  7 10  1  0  0  0  0
  7 17  1  0  0  0  0
  7 32  1  0  0  0  0
  8  9  1  0  0  0  0
  8 11  1  0  0  0  0
  8 13  1  0  0  0  0
  9 10  2  0  0  0  0
  9 28  1  0  0  0  0
 10 12  1  0  0  0  0
 11 29  1  0  0  0  0
 11 30  1  0  0  0  0
 11 31  1  0  0  0  0
 14 15  2  0  0  0  0
 14 16  1  0  0  0  0
 15 18  1  0  0  0  0
 15 33  1  0  0  0  0
 16 19  2  0  0  0  0
 16 34  1  0  0  0  0
 17 22  2  0  0  0  0
 17 23  1  0  0  0  0
 18 21  2  0  0  0  0
 18 35  1  0  0  0  0
 19 21  1  0  0  0  0
 19 36  1  0  0  0  0
 20 24  1  0  0  0  0
 20 37  1  0  0  0  0
 20 38  1  0  0  0  0
 22 25  1  0  0  0  0
 22 39  1  0  0  0  0
 23 26  2  0  0  0  0
 23 40  1  0  0  0  0
 24 41  1  0  0  0  0
 24 42  1  0  0  0  0
 24 43  1  0  0  0  0
 25 27  2  0  0  0  0
 25 44  1  0  0  0  0
 26 27  1  0  0  0  0
 26 45  1  0  0  0  0
M  END
> <PUBCHEM_COMPOUND_CID>
3759952

> <PUBCHEM_CONFORMER_RMSD>
0.8

> <PUBCHEM_CONFORMER_DIVERSEORDER>
3
39
41
58
44
43
38
56
55
7
54
60
31
47
35
36
63
12
21
46
22
10
17
53
32
62
48
61
30
34
18
51
33
29
49
20
37
59
26
52
25
57
28
14
8
24
50
5
16
6
40
45
19
1
27
13
23
42
4
15
2
9
11

> <PUBCHEM_MMFF94_PARTIAL_CHARGES>
37
1 -0.43
10 0.11
12 0.62
13 0.66
14 0.12
15 -0.15
16 -0.15
17 0.1
18 -0.15
19 -0.15
2 -0.57
20 0.28
21 0.08
22 -0.15
23 -0.15
25 -0.15
26 -0.15
27 0.08
28 0.15
3 -0.57
32 0.4
33 0.15
34 0.15
35 0.15
36 0.15
39 0.15
4 -0.53
40 0.15
44 0.15
45 0.15
46 0.45
47 0.45
5 -0.53
6 -0.48
7 -0.6
8 0.5
9 -0.29

> <PUBCHEM_EFFECTIVE_ROTOR_COUNT>
6.4

> <PUBCHEM_PHARMACOPHORE_FEATURES>
9
1 2 acceptor
1 3 acceptor
1 4 donor
1 5 donor
1 7 cation
1 7 donor
5 6 8 9 10 12 rings
6 14 15 16 18 19 21 rings
6 17 22 23 25 26 27 rings

> <PUBCHEM_HEAVY_ATOM_COUNT>
27

> <PUBCHEM_ATOM_DEF_STEREO_COUNT>
0

> <PUBCHEM_ATOM_UDEF_STEREO_COUNT>
1

> <PUBCHEM_BOND_DEF_STEREO_COUNT>
0

> <PUBCHEM_BOND_UDEF_STEREO_COUNT>
0

> <PUBCHEM_ISOTOPIC_ATOM_COUNT>
0

> <PUBCHEM_COMPONENT_COUNT>
1

> <PUBCHEM_CACTVS_TAUTO_COUNT>
8

> <PUBCHEM_CONFORMER_ID>
00395F5000000003

> <PUBCHEM_MMFF94_ENERGY>
91.892

> <PUBCHEM_FEATURE_SELFOVERLAP>
45.671

> <PUBCHEM_SHAPE_FINGERPRINT>
10050765 1 18193837270238894392
10254770 206 17975967667165125426
10411042 1 17689433110987958907
107951 10 18412543210815162207
10835480 77 18201152256842972584
11315181 36 17131836486850994760
11578080 2 17486764461597213801
11991303 11 18113899385996309727
12236239 1 16732704952400334472
12293681 160 17917426472086467801
12643181 29 18410857647327260390
12788726 201 17631733751554740536
12969540 114 18262785294584047485
13402501 40 18343865489982867516
13533116 47 14979680949467383052
13540713 4 17985821769001581560
13583140 156 17487615454170611656
14790565 3 18267020553265719185
14856354 85 16153433856707313227
14866123 147 18337953497248729099
15042514 8 18194123134592937027
15099037 51 18410857655168095700
15131766 46 14925379488912662502
15183329 4 18342456998175682504
15849732 13 17894916225922511525
15927050 60 18411132533059930031
17349148 13 14261355782035553912
17492 89 18050568740407326334
17980427 23 13551473610623531183
18681886 176 18335133215964541913
19141452 34 18409730685983058612
19301676 85 17981058418675692286
19958102 18 18409441458405678454
200 152 17060338501007904456
20602899 9 17632579353052755235
21033648 29 18342165666123025257
21267235 1 18409731777411407193
21307412 95 18200894893680487974
21478907 32 17978512262855498403
21703447 108 17837195349041152546
21781051 124 18042710423555880275
22182313 1 18266486268071984251
23402539 116 18343295972544636549
23559900 14 18200305645500160952
283562 15 18127694833509266913
3004659 81 18410293584945563376
3103668 31 18190730037990114695
335352 9 18410573985310200812
3383291 50 18411419531300637131
340366 18 18261117408522718796
34934 24 18334008406857443240
38695281 34 18337389336472407751
4015057 19 17775277313716967792
404807 14 16765941857331141390
4073 2 18339358678141640872
44062 13 18340208600229452622
5104073 3 18130227177161366458
513202 73 18118695550111426211
5283173 99 18342455937376997088
559249 180 18409728461327233786
59755656 215 18338795615912804773
59755656 520 18335413560921242103
6138700 20 18339081484540676372
6669772 16 18270121210337184679
70251023 43 17687467179643663019
7164475 11 17904763636912875501
7399639 24 17264115659370566624
9709674 26 18270679904220198916

> <PUBCHEM_SHAPE_MULTIPOLES>
516.34
13.85
3.95
1.04
15.82
6.28
-0.32
-6.22
3.35
-5.46
0.05
-0.03
0.33
1.02

> <PUBCHEM_SHAPE_SELFOVERLAP>
1123.583

> <PUBCHEM_SHAPE_VOLUME>
282

> <PUBCHEM_COORDINATE_TYPE>
2
5
10

$$$$
