766079
  -OEChem-01171811453D

 31 32  0     0  0  0  0  0  0999 V2000
   -0.9877   -0.0708   -1.8470 O   0  0  0  0  0  0  0  0  0  0  0  0
    0.1379    2.3506   -0.4173 O   0  0  0  0  0  0  0  0  0  0  0  0
    0.1472   -2.3944   -0.2707 O   0  0  0  0  0  0  0  0  0  0  0  0
   -3.0215    1.6077   -0.6524 O   0  0  0  0  0  0  0  0  0  0  0  0
   -3.0562   -1.4849   -0.7599 O   0  0  0  0  0  0  0  0  0  0  0  0
   -0.4630   -0.0297   -0.5462 C   0  0  0  0  0  0  0  0  0  0  0  0
   -1.5971   -0.0010    0.4650 C   0  0  0  0  0  0  0  0  0  0  0  0
    0.4511    1.1763   -0.3662 C   0  0  0  0  0  0  0  0  0  0  0  0
    0.4556   -1.2177   -0.2928 C   0  0  0  0  0  0  0  0  0  0  0  0
    1.8028    0.6858   -0.0897 C   0  0  0  0  0  0  0  0  0  0  0  0
    1.8055   -0.7058   -0.0471 C   0  0  0  0  0  0  0  0  0  0  0  0
   -2.3982    1.2964    0.3620 C   0  0  0  0  0  0  0  0  0  0  0  0
   -2.4720   -1.2373    0.2952 C   0  0  0  0  0  0  0  0  0  0  0  0
    2.9539    1.4205    0.1181 C   0  0  0  0  0  0  0  0  0  0  0  0
    2.9595   -1.4218    0.2053 C   0  0  0  0  0  0  0  0  0  0  0  0
   -2.4149    2.1822    1.5826 C   0  0  0  0  0  0  0  0  0  0  0  0
   -2.5688   -2.1740    1.4723 C   0  0  0  0  0  0  0  0  0  0  0  0
    4.1317    0.7127    0.3727 C   0  0  0  0  0  0  0  0  0  0  0  0
    4.1344   -0.6949    0.4160 C   0  0  0  0  0  0  0  0  0  0  0  0
   -1.1765   -0.0377    1.4796 H   0  0  0  0  0  0  0  0  0  0  0  0
   -0.2458   -0.0884   -2.4755 H   0  0  0  0  0  0  0  0  0  0  0  0
    2.9546    2.5040    0.0874 H   0  0  0  0  0  0  0  0  0  0  0  0
    2.9645   -2.5051    0.2411 H   0  0  0  0  0  0  0  0  0  0  0  0
   -2.9387    3.1143    1.3536 H   0  0  0  0  0  0  0  0  0  0  0  0
   -1.3932    2.4215    1.8863 H   0  0  0  0  0  0  0  0  0  0  0  0
   -2.9373    1.6701    2.3944 H   0  0  0  0  0  0  0  0  0  0  0  0
   -1.5738   -2.5094    1.7721 H   0  0  0  0  0  0  0  0  0  0  0  0
   -3.0558   -1.6589    2.3042 H   0  0  0  0  0  0  0  0  0  0  0  0
   -3.1670   -3.0477    1.1990 H   0  0  0  0  0  0  0  0  0  0  0  0
    5.0591    1.2539    0.5411 H   0  0  0  0  0  0  0  0  0  0  0  0
    5.0639   -1.2212    0.6172 H   0  0  0  0  0  0  0  0  0  0  0  0
  1  6  1  0  0  0  0
  1 21  1  0  0  0  0
  2  8  2  0  0  0  0
  3  9  2  0  0  0  0
  4 12  2  0  0  0  0
  5 13  2  0  0  0  0
  6  7  1  0  0  0  0
  6  8  1  0  0  0  0
  6  9  1  0  0  0  0
  7 12  1  0  0  0  0
  7 13  1  0  0  0  0
  7 20  1  0  0  0  0
  8 10  1  0  0  0  0
  9 11  1  0  0  0  0
 10 11  1  0  0  0  0
 10 14  2  0  0  0  0
 11 15  2  0  0  0  0
 12 16  1  0  0  0  0
 13 17  1  0  0  0  0
 14 18  1  0  0  0  0
 14 22  1  0  0  0  0
 15 19  1  0  0  0  0
 15 23  1  0  0  0  0
 16 24  1  0  0  0  0
 16 25  1  0  0  0  0
 16 26  1  0  0  0  0
 17 27  1  0  0  0  0
 17 28  1  0  0  0  0
 17 29  1  0  0  0  0
 18 19  2  0  0  0  0
 18 30  1  0  0  0  0
 19 31  1  0  0  0  0
M  END
> <PUBCHEM_COMPOUND_CID>
766079

> <PUBCHEM_CONFORMER_RMSD>
0.6

> <PUBCHEM_CONFORMER_DIVERSEORDER>
1
2
3
9
8
7
11
6
10
4
5

> <PUBCHEM_MMFF94_PARTIAL_CHARGES>
24
1 -0.68
10 0.09
11 0.09
12 0.45
13 0.45
14 -0.15
15 -0.15
16 0.06
17 0.06
18 -0.15
19 -0.15
2 -0.57
21 0.4
22 0.15
23 0.15
3 -0.57
30 0.15
31 0.15
4 -0.57
5 -0.57
6 0.4
7 0.12
8 0.42
9 0.42

> <PUBCHEM_EFFECTIVE_ROTOR_COUNT>
3.2

> <PUBCHEM_PHARMACOPHORE_FEATURES>
9
1 1 acceptor
1 1 donor
1 2 acceptor
1 3 acceptor
1 4 acceptor
1 5 acceptor
1 7 anion
5 6 8 9 10 11 rings
6 10 11 14 15 18 19 rings

> <PUBCHEM_HEAVY_ATOM_COUNT>
19

> <PUBCHEM_ATOM_DEF_STEREO_COUNT>
0

> <PUBCHEM_ATOM_UDEF_STEREO_COUNT>
0

> <PUBCHEM_BOND_DEF_STEREO_COUNT>
0

> <PUBCHEM_BOND_UDEF_STEREO_COUNT>
0

> <PUBCHEM_ISOTOPIC_ATOM_COUNT>
0

> <PUBCHEM_COMPONENT_COUNT>
1

> <PUBCHEM_CACTVS_TAUTO_COUNT>
5

> <PUBCHEM_CONFORMER_ID>
000BB07F00000001

> <PUBCHEM_MMFF94_ENERGY>
46.1861

> <PUBCHEM_FEATURE_SELFOVERLAP>
45.763

> <PUBCHEM_SHAPE_FINGERPRINT>
10863032 1 18341612590309108960
10967382 1 18266457594801270044
11132069 177 18337388241029056400
12251169 10 18337961090581453752
12382932 28 18337112271973455552
12423570 1 8657847598474087319
12491281 212 18342746173801862760
12633257 1 18120655734445348306
13140716 1 18338522941228774328
13214271 11 18411694392211918716
13380535 76 18338796693849141623
14178342 30 18338246980726392649
14223421 5 18337675333648864984
14289901 80 18202279234327189690
14790565 3 15738834766993187637
15196674 1 18410290311905781016
15309172 13 18409730630026982546
15375462 478 18200876278753785957
16945 1 18120662588923027870
19422 9 18260271871475092216
200 152 18271513303990323031
20510252 161 18272653492883886440
20525323 117 18341898493455240827
21267235 1 18409454717186225706
21501502 16 18409731750955314048
2334 1 18410298037998104100
23388829 49 18268992162144700629
23402539 116 18200581609447807062
23463225 33 18408040715099205700
23559900 14 18336819896422761472
2748010 2 18411424998746187702
335352 9 18122059806567622558
4340502 62 18124896577244447001
5104073 3 18410006633742775728
8809292 202 18261676952566742554
9709674 26 18410857646451703486

> <PUBCHEM_SHAPE_MULTIPOLES>
361.66
6.25
2.47
1.12
3.84
0.03
0.03
-0.06
1.45
-1.41
0.47
-0.84
0.03
-0.07

> <PUBCHEM_SHAPE_SELFOVERLAP>
789.341

> <PUBCHEM_SHAPE_VOLUME>
197.3

> <PUBCHEM_COORDINATE_TYPE>
2
5
10

$$$$
