24793736
  -OEChem-01171812083D

 54 57  0     0  0  0  0  0  0999 V2000
   -4.1261    1.4835    1.4496 O   0  0  0  0  0  0  0  0  0  0  0  0
   -0.8358   -1.5059   -0.6318 O   0  0  0  0  0  0  0  0  0  0  0  0
   -5.5622    0.6656   -0.1832 N   0  0  0  0  0  0  0  0  0  0  0  0
    0.3410   -0.4657    1.0769 N   0  0  0  0  0  0  0  0  0  0  0  0
    3.7474   -1.1552    0.2068 N   0  0  0  0  0  0  0  0  0  0  0  0
    1.4866   -1.1626    0.8000 N   0  0  0  0  0  0  0  0  0  0  0  0
    2.5878    0.8588    0.3731 N   0  0  0  0  0  0  0  0  0  0  0  0
    5.8449   -1.5118   -0.3198 N   0  0  0  0  0  0  0  0  0  0  0  0
    3.8557   -2.4929    0.2699 N   0  0  0  0  0  0  0  0  0  0  0  0
   -8.2656   -0.2810   -0.6413 C   0  0  0  0  0  0  0  0  0  0  0  0
   -7.9088    0.6019    0.5641 C   0  0  0  0  0  0  0  0  0  0  0  0
   -7.0381   -1.0895   -1.0883 C   0  0  0  0  0  0  0  0  0  0  0  0
   -6.6939    1.4776    0.2668 C   0  0  0  0  0  0  0  0  0  0  0  0
   -5.8391   -0.1796   -1.3506 C   0  0  0  0  0  0  0  0  0  0  0  0
   -9.4344   -1.2058   -0.3106 C   0  0  0  0  0  0  0  0  0  0  0  0
   -4.3335    0.7646    0.4687 C   0  0  0  0  0  0  0  0  0  0  0  0
   -3.2073   -0.0740   -0.0811 C   0  0  0  0  0  0  0  0  0  0  0  0
   -1.9511    0.1524    0.7400 C   0  0  0  0  0  0  0  0  0  0  0  0
   -0.7774   -0.7079    0.3000 C   0  0  0  0  0  0  0  0  0  0  0  0
    4.9378   -0.5781   -0.1450 C   0  0  0  0  0  0  0  0  0  0  0  0
    2.5728   -0.4465    0.4664 C   0  0  0  0  0  0  0  0  0  0  0  0
    4.9859    0.8618   -0.2558 C   0  0  0  0  0  0  0  0  0  0  0  0
    3.7799    1.5448    0.0139 C   0  0  0  0  0  0  0  0  0  0  0  0
    6.1427    1.5587   -0.6065 C   0  0  0  0  0  0  0  0  0  0  0  0
    5.1414   -2.6563   -0.0571 C   0  0  0  0  0  0  0  0  0  0  0  0
    3.7626    2.9395   -0.0766 C   0  0  0  0  0  0  0  0  0  0  0  0
    6.1052    2.9500   -0.6915 C   0  0  0  0  0  0  0  0  0  0  0  0
    4.9200    3.6380   -0.4275 C   0  0  0  0  0  0  0  0  0  0  0  0
    5.7615   -3.9843   -0.1293 C   0  0  0  0  0  0  0  0  0  0  0  0
   -8.5725    0.3708   -1.4702 H   0  0  0  0  0  0  0  0  0  0  0  0
   -8.7610    1.2371    0.8321 H   0  0  0  0  0  0  0  0  0  0  0  0
   -7.6918   -0.0320    1.4337 H   0  0  0  0  0  0  0  0  0  0  0  0
   -6.7732   -1.8178   -0.3109 H   0  0  0  0  0  0  0  0  0  0  0  0
   -7.2716   -1.6572   -1.9965 H   0  0  0  0  0  0  0  0  0  0  0  0
   -6.4295    2.0565    1.1573 H   0  0  0  0  0  0  0  0  0  0  0  0
   -6.9224    2.1927   -0.5324 H   0  0  0  0  0  0  0  0  0  0  0  0
   -6.0473    0.4912   -2.1927 H   0  0  0  0  0  0  0  0  0  0  0  0
   -4.9791   -0.7895   -1.6315 H   0  0  0  0  0  0  0  0  0  0  0  0
  -10.3167   -0.6266   -0.0189 H   0  0  0  0  0  0  0  0  0  0  0  0
   -9.7051   -1.8146   -1.1797 H   0  0  0  0  0  0  0  0  0  0  0  0
   -9.1864   -1.8833    0.5134 H   0  0  0  0  0  0  0  0  0  0  0  0
   -3.0237    0.2006   -1.1257 H   0  0  0  0  0  0  0  0  0  0  0  0
   -3.4919   -1.1312   -0.0357 H   0  0  0  0  0  0  0  0  0  0  0  0
   -2.1409   -0.0709    1.7980 H   0  0  0  0  0  0  0  0  0  0  0  0
   -1.6396    1.2030    0.6758 H   0  0  0  0  0  0  0  0  0  0  0  0
    0.3806    0.1822    1.8564 H   0  0  0  0  0  0  0  0  0  0  0  0
    1.4616   -2.1719    0.8967 H   0  0  0  0  0  0  0  0  0  0  0  0
    7.0720    1.0355   -0.8145 H   0  0  0  0  0  0  0  0  0  0  0  0
    2.8480    3.4913    0.1256 H   0  0  0  0  0  0  0  0  0  0  0  0
    7.0013    3.5005   -0.9638 H   0  0  0  0  0  0  0  0  0  0  0  0
    4.8974    4.7220   -0.4954 H   0  0  0  0  0  0  0  0  0  0  0  0
    6.8160   -3.9114   -0.4136 H   0  0  0  0  0  0  0  0  0  0  0  0
    5.2549   -4.6083   -0.8723 H   0  0  0  0  0  0  0  0  0  0  0  0
    5.7083   -4.4897    0.8401 H   0  0  0  0  0  0  0  0  0  0  0  0
  1 16  2  0  0  0  0
  2 19  2  0  0  0  0
  3 13  1  0  0  0  0
  3 14  1  0  0  0  0
  3 16  1  0  0  0  0
  4  6  1  0  0  0  0
  4 19  1  0  0  0  0
  4 46  1  0  0  0  0
  5  9  1  0  0  0  0
  5 20  1  0  0  0  0
  5 21  1  0  0  0  0
  6 21  1  0  0  0  0
  6 47  1  0  0  0  0
  7 21  2  0  0  0  0
  7 23  1  0  0  0  0
  8 20  2  0  0  0  0
  8 25  1  0  0  0  0
  9 25  2  0  0  0  0
 10 11  1  0  0  0  0
 10 12  1  0  0  0  0
 10 15  1  0  0  0  0
 10 30  1  0  0  0  0
 11 13  1  0  0  0  0
 11 31  1  0  0  0  0
 11 32  1  0  0  0  0
 12 14  1  0  0  0  0
 12 33  1  0  0  0  0
 12 34  1  0  0  0  0
 13 35  1  0  0  0  0
 13 36  1  0  0  0  0
 14 37  1  0  0  0  0
 14 38  1  0  0  0  0
 15 39  1  0  0  0  0
 15 40  1  0  0  0  0
 15 41  1  0  0  0  0
 16 17  1  0  0  0  0
 17 18  1  0  0  0  0
 17 42  1  0  0  0  0
 17 43  1  0  0  0  0
 18 19  1  0  0  0  0
 18 44  1  0  0  0  0
 18 45  1  0  0  0  0
 20 22  1  0  0  0  0
 22 23  1  0  0  0  0
 22 24  2  0  0  0  0
 23 26  2  0  0  0  0
 24 27  1  0  0  0  0
 24 48  1  0  0  0  0
 25 29  1  0  0  0  0
 26 28  1  0  0  0  0
 26 49  1  0  0  0  0
 27 28  2  0  0  0  0
 27 50  1  0  0  0  0
 28 51  1  0  0  0  0
 29 52  1  0  0  0  0
 29 53  1  0  0  0  0
 29 54  1  0  0  0  0
M  END
> <PUBCHEM_COMPOUND_CID>
24793736

> <PUBCHEM_CONFORMER_RMSD>
1.2

> <PUBCHEM_CONFORMER_DIVERSEORDER>
1
23
98
80
77
26
90
57
33
28
31
85
20
58
74
73
106
92
41
102
81
7
24
47
113
5
16
116
32
18
50
46
110
10
12
103
64
15
27
43
36
105
78
44
108
96
89
35
52
119
13
62
79
40
56
100
3
107
69
9
39
11
25
118
95
114
84
111
38
115
14
117
53
61
55
34
101
109
42
75
49
66
29
99
104
87
30
54
51
45
68
70
2
88
76
86
71
82
60
83
6
65
37
93
22
8
72
63
17
120
94
21
59
19
48
91
4
67
112
97

> <PUBCHEM_MMFF94_PARTIAL_CHARGES>
31
1 -0.57
13 0.3
14 0.3
16 0.57
17 0.06
18 0.06
19 0.57
2 -0.57
20 0.13
21 0.51
22 0.05
23 0.18
24 -0.15
25 0.34
26 -0.15
27 -0.15
28 -0.15
29 0.18
3 -0.66
4 -0.41
46 0.37
47 0.4
48 0.15
49 0.15
5 0.56
50 0.15
51 0.15
6 -0.47
7 -0.63
8 -0.57
9 -0.71

> <PUBCHEM_EFFECTIVE_ROTOR_COUNT>
8.2

> <PUBCHEM_PHARMACOPHORE_FEATURES>
10
1 1 acceptor
1 2 acceptor
1 4 donor
1 6 donor
3 8 9 25 cation
4 5 6 7 21 cation
5 5 8 9 20 25 rings
6 22 23 24 26 27 28 rings
6 3 10 11 12 13 14 rings
6 5 7 20 21 22 23 rings

> <PUBCHEM_HEAVY_ATOM_COUNT>
29

> <PUBCHEM_ATOM_DEF_STEREO_COUNT>
0

> <PUBCHEM_ATOM_UDEF_STEREO_COUNT>
0

> <PUBCHEM_BOND_DEF_STEREO_COUNT>
0

> <PUBCHEM_BOND_UDEF_STEREO_COUNT>
0

> <PUBCHEM_ISOTOPIC_ATOM_COUNT>
0

> <PUBCHEM_COMPONENT_COUNT>
1

> <PUBCHEM_CACTVS_TAUTO_COUNT>
8

> <PUBCHEM_CONFORMER_ID>
017A528800000001

> <PUBCHEM_MMFF94_ENERGY>
58.9641

> <PUBCHEM_FEATURE_SELFOVERLAP>
52.464

> <PUBCHEM_SHAPE_FINGERPRINT>
10162869 55 18411412921430162778
10299344 5 18202845453320318251
10411042 1 18048879594822573218
10595046 47 18343022185796632569
10835480 77 18261957443737265363
11101153 10 18409168801498622329
11135609 127 18269551801554861568
11386260 185 18334860502646996236
11607047 191 17415256594690901512
12166972 35 18410292497870717497
13533116 47 18412262826807233672
13878862 14 18261942008131608724
14856354 85 17489587896974654277
14933364 13 18408604760569993797
150020 25 18040151821670497643
15183329 4 17632583759942415185
1577012 14 18202007603547604833
20157964 124 18409167727439533672
20554085 129 15574705916018360529
21150785 3 18272933855960075605
21315759 40 17917712366663471403
21315763 28 18411418372139027515
21344244 78 18268414760591621706
21781051 124 16486976245427859367
221357 26 18262237720945822260
23081809 10 18060421296515447121
23522609 53 17845114951187582489
249057 25 18059583438237104057
255183 451 18198912397238629062
2747138 104 17313112943253216941
3004659 81 17988645160411796094
335352 9 18409174308094212014
34797466 226 18407476661349829751
397830 11 17822869687662737947
4073 2 18114466767886521259
4197921 191 18342740723736348729
44317340 157 18342170094339197617
44555599 121 18270971128931421449
445580 167 18411414047275876125
4625314 4 18336825308941176623
5470011 282 18409443705332976503
9831232 110 18128540357924471407
9962374 69 18409721838408944858

> <PUBCHEM_SHAPE_MULTIPOLES>
550.2
27.36
3.53
0.95
52.46
0.42
-0.01
-0.05
-5.68
-11.01
-0.4
0.97
-0.08
-1.85

> <PUBCHEM_SHAPE_SELFOVERLAP>
1178.242

> <PUBCHEM_SHAPE_VOLUME>
303.5

> <PUBCHEM_COORDINATE_TYPE>
2
5
10

$$$$
