1100894
  -OEChem-01171811413D

 49 53  0     1  0  0  0  0  0999 V2000
   -0.9353   -0.9161   -0.3756 O   0  0  0  0  0  0  0  0  0  0  0  0
    5.8555    1.7335    0.0339 O   0  0  0  0  0  0  0  0  0  0  0  0
   -2.5369    0.5505   -1.2840 N   0  0  2  0  0  0  0  0  0  0  0  0
    0.7902    1.3713   -0.4526 N   0  0  0  0  0  0  0  0  0  0  0  0
   -2.2540    0.5337    1.1395 C   0  0  0  0  0  0  0  0  0  0  0  0
   -1.4868    0.3951   -0.2533 C   0  0  1  0  0  0  0  0  0  0  0  0
   -3.6631    0.1773    0.7044 C   0  0  0  0  0  0  0  0  0  0  0  0
   -3.7544    0.2296   -0.6924 C   0  0  0  0  0  0  0  0  0  0  0  0
   -2.2844    1.9687    1.7026 C   0  0  0  0  0  0  0  0  0  0  0  0
   -1.7338   -0.4191    2.2260 C   0  0  0  0  0  0  0  0  0  0  0  0
   -0.4913    1.5243   -0.4695 C   0  0  0  0  0  0  0  0  0  0  0  0
   -2.2870    0.3560   -2.6957 C   0  0  0  0  0  0  0  0  0  0  0  0
   -4.7664   -0.1252    1.4931 C   0  0  0  0  0  0  0  0  0  0  0  0
   -4.9709   -0.0203   -1.3143 C   0  0  0  0  0  0  0  0  0  0  0  0
    0.4193   -1.0273   -0.2427 C   0  0  0  0  0  0  0  0  0  0  0  0
    1.2827    0.0715   -0.2592 C   0  0  0  0  0  0  0  0  0  0  0  0
   -5.9837   -0.3840    0.8650 C   0  0  0  0  0  0  0  0  0  0  0  0
   -6.0857   -0.3308   -0.5303 C   0  0  0  0  0  0  0  0  0  0  0  0
    2.6795   -0.1345   -0.1092 C   0  0  0  0  0  0  0  0  0  0  0  0
    0.9132   -2.3219   -0.0983 C   0  0  0  0  0  0  0  0  0  0  0  0
    3.1736   -1.4544    0.0487 C   0  0  0  0  0  0  0  0  0  0  0  0
    2.2804   -2.5333    0.0495 C   0  0  0  0  0  0  0  0  0  0  0  0
    3.6140    0.9245   -0.1113 C   0  0  0  0  0  0  0  0  0  0  0  0
    4.5531   -1.6736    0.1992 C   0  0  0  0  0  0  0  0  0  0  0  0
    4.9821    0.6897    0.0392 C   0  0  0  0  0  0  0  0  0  0  0  0
    5.4510   -0.6082    0.1948 C   0  0  0  0  0  0  0  0  0  0  0  0
    7.2391    1.4232    0.1927 C   0  0  0  0  0  0  0  0  0  0  0  0
   -2.6802    2.6879    0.9761 H   0  0  0  0  0  0  0  0  0  0  0  0
   -2.9236    2.0333    2.5917 H   0  0  0  0  0  0  0  0  0  0  0  0
   -1.2832    2.2984    2.0012 H   0  0  0  0  0  0  0  0  0  0  0  0
   -1.8324   -1.4708    1.9344 H   0  0  0  0  0  0  0  0  0  0  0  0
   -0.6802   -0.2194    2.4486 H   0  0  0  0  0  0  0  0  0  0  0  0
   -2.2907   -0.3004    3.1629 H   0  0  0  0  0  0  0  0  0  0  0  0
   -0.8928    2.5395   -0.6274 H   0  0  0  0  0  0  0  0  0  0  0  0
   -1.2899    0.7142   -2.9713 H   0  0  0  0  0  0  0  0  0  0  0  0
   -3.0080    0.9137   -3.3023 H   0  0  0  0  0  0  0  0  0  0  0  0
   -2.3480   -0.7051   -2.9603 H   0  0  0  0  0  0  0  0  0  0  0  0
   -4.6952   -0.1532    2.5751 H   0  0  0  0  0  0  0  0  0  0  0  0
   -5.0736    0.0171   -2.3942 H   0  0  0  0  0  0  0  0  0  0  0  0
   -6.8602   -0.6227    1.4608 H   0  0  0  0  0  0  0  0  0  0  0  0
   -7.0411   -0.5308   -1.0077 H   0  0  0  0  0  0  0  0  0  0  0  0
    0.2365   -3.1725   -0.0929 H   0  0  0  0  0  0  0  0  0  0  0  0
    2.6417   -3.5530    0.1660 H   0  0  0  0  0  0  0  0  0  0  0  0
    3.2799    1.9539   -0.2301 H   0  0  0  0  0  0  0  0  0  0  0  0
    4.9413   -2.6833    0.3209 H   0  0  0  0  0  0  0  0  0  0  0  0
    6.4979   -0.8641    0.3165 H   0  0  0  0  0  0  0  0  0  0  0  0
    7.7880    2.3703    0.1646 H   0  0  0  0  0  0  0  0  0  0  0  0
    7.6125    0.8127   -0.6365 H   0  0  0  0  0  0  0  0  0  0  0  0
    7.4399    0.9664    1.1677 H   0  0  0  0  0  0  0  0  0  0  0  0
  1  6  1  0  0  0  0
  1 15  1  0  0  0  0
  2 25  1  0  0  0  0
  2 27  1  0  0  0  0
  3  6  1  0  0  0  0
  3  8  1  0  0  0  0
  3 12  1  0  0  0  0
  4 11  2  0  0  0  0
  4 16  1  0  0  0  0
  5  6  1  0  0  0  0
  5  7  1  0  0  0  0
  5  9  1  0  0  0  0
  5 10  1  0  0  0  0
  6 11  1  0  0  0  0
  7  8  1  0  0  0  0
  7 13  2  0  0  0  0
  8 14  2  0  0  0  0
  9 28  1  0  0  0  0
  9 29  1  0  0  0  0
  9 30  1  0  0  0  0
 10 31  1  0  0  0  0
 10 32  1  0  0  0  0
 10 33  1  0  0  0  0
 11 34  1  0  0  0  0
 12 35  1  0  0  0  0
 12 36  1  0  0  0  0
 12 37  1  0  0  0  0
 13 17  1  0  0  0  0
 13 38  1  0  0  0  0
 14 18  1  0  0  0  0
 14 39  1  0  0  0  0
 15 16  2  0  0  0  0
 15 20  1  0  0  0  0
 16 19  1  0  0  0  0
 17 18  2  0  0  0  0
 17 40  1  0  0  0  0
 18 41  1  0  0  0  0
 19 21  2  0  0  0  0
 19 23  1  0  0  0  0
 20 22  2  0  0  0  0
 20 42  1  0  0  0  0
 21 22  1  0  0  0  0
 21 24  1  0  0  0  0
 22 43  1  0  0  0  0
 23 25  2  0  0  0  0
 23 44  1  0  0  0  0
 24 26  2  0  0  0  0
 24 45  1  0  0  0  0
 25 26  1  0  0  0  0
 26 46  1  0  0  0  0
 27 47  1  0  0  0  0
 27 48  1  0  0  0  0
 27 49  1  0  0  0  0
M  END
> <PUBCHEM_COMPOUND_CID>
1100894

> <PUBCHEM_CONFORMER_RMSD>
0.6

> <PUBCHEM_CONFORMER_DIVERSEORDER>
2
1

> <PUBCHEM_MMFF94_PARTIAL_CHARGES>
33
1 -0.36
11 0.33
12 0.37
13 -0.15
14 -0.15
15 0.08
16 0.18
17 -0.15
18 -0.15
2 -0.36
20 -0.15
22 -0.15
23 -0.15
24 -0.15
25 0.08
26 -0.15
27 0.28
3 -0.84
34 0.06
38 0.15
39 0.15
4 -0.63
40 0.15
41 0.15
42 0.15
43 0.15
44 0.15
45 0.15
46 0.15
5 0.14
6 0.71
7 -0.14
8 0.1

> <PUBCHEM_EFFECTIVE_ROTOR_COUNT>
1.6

> <PUBCHEM_PHARMACOPHORE_FEATURES>
10
1 1 acceptor
1 2 acceptor
1 3 cation
1 4 acceptor
3 5 9 10 hydrophobe
5 3 5 6 7 8 rings
6 1 4 6 11 15 16 rings
6 15 16 19 20 21 22 rings
6 19 21 23 24 25 26 rings
6 7 8 13 14 17 18 rings

> <PUBCHEM_HEAVY_ATOM_COUNT>
27

> <PUBCHEM_ATOM_DEF_STEREO_COUNT>
1

> <PUBCHEM_ATOM_UDEF_STEREO_COUNT>
0

> <PUBCHEM_BOND_DEF_STEREO_COUNT>
0

> <PUBCHEM_BOND_UDEF_STEREO_COUNT>
0

> <PUBCHEM_ISOTOPIC_ATOM_COUNT>
0

> <PUBCHEM_COMPONENT_COUNT>
1

> <PUBCHEM_CACTVS_TAUTO_COUNT>
1

> <PUBCHEM_CONFORMER_ID>
0010CC5E00000002

> <PUBCHEM_MMFF94_ENERGY>
115.6398

> <PUBCHEM_FEATURE_SELFOVERLAP>
50.902

> <PUBCHEM_SHAPE_FINGERPRINT>
10 15 17748824164118113800
10366900 7 18042138582788171098
10835480 77 18187638068899082485
11273773 42 17702951469307683464
11315181 36 14490478594752407780
11796584 16 14201409278581120000
12035758 1 17458642120208730121
12107183 9 17336759915522656515
12236239 1 17846780693769650495
12390115 104 14332863543245530195
12403259 415 18113616742640353302
12596602 18 17989491809681183595
12788726 201 17346601842114207235
13224815 77 18335986359340057326
13402501 40 17894631460947662360
13533116 47 18131349683548445138
13583140 156 16732968848249579596
13631057 29 18057033821439590095
13782708 43 17531806831977321554
14341114 328 17775571913949723619
14386348 63 17821733814404171843
14787075 74 18060702783839080451
14840074 17 18131630088756240789
14910302 57 16009304293170812746
15183329 4 11674878887698159163
15575132 122 17775005648508747265
17349148 13 18334018263374721315
17980427 23 18130803226491363561
19377110 9 18059566962953624242
19489759 90 15936408923001433469
200 152 18413105035755423203
20511986 3 18059283280479579441
21033648 29 18115008771611500316
21033650 10 16844196526931931416
21267235 1 18338801114024850902
21623969 137 18334016094463969218
22224240 67 18410571829721434056
23198884 109 15626233424483450184
23557571 272 16950562121449337375
23559900 14 16009038310066792357
23569917 315 18413672409653098494
3004659 81 12757152360011613066
335352 9 18411703193581161758
3380486 145 18042987513144219723
34797466 226 15267060393681744080
404807 14 14930369896569744408
4340502 62 16949995933576027162
5104073 3 18115584825457082656
5283173 99 17386279879497584397
542803 24 17346597473863480286
5758199 1 18272654575748498808
59755656 520 18202281433371661462
9849439 229 15550259181418297609

> <PUBCHEM_SHAPE_MULTIPOLES>
533.95
14.67
1.88
1.55
8.68
0.51
0.17
-2.6
-0.93
2.42
-0.22
-2.52
-0.27
-0.2

> <PUBCHEM_SHAPE_SELFOVERLAP>
1202.973

> <PUBCHEM_SHAPE_VOLUME>
282.1

> <PUBCHEM_COORDINATE_TYPE>
2
5
10

$$$$
