5721510
  -OEChem-01171811593D

 33 34  0     0  0  0  0  0  0999 V2000
   -4.4806   -2.9585   -0.5778 Br  0  0  0  0  0  0  0  0  0  0  0  0
   -6.2152   -0.6428    0.2802 O   0  0  0  0  0  0  0  0  0  0  0  0
   -2.8682    2.6939    0.5486 O   0  0  0  0  0  0  0  0  0  0  0  0
    3.7557    0.4602   -0.3251 N   0  0  0  0  0  0  0  0  0  0  0  0
    1.4338    0.4939   -0.7427 N   0  0  0  0  0  0  0  0  0  0  0  0
    3.8664   -1.0703    1.2348 N   0  0  0  0  0  0  0  0  0  0  0  0
    0.1567    0.0734   -0.6022 N   0  0  0  0  0  0  0  0  0  0  0  0
    2.5448   -0.9200    0.8650 N   0  0  0  0  0  0  0  0  0  0  0  0
    4.1399    1.4503   -1.2588 N   0  0  0  0  0  0  0  0  0  0  0  0
    4.5763   -0.2348    0.5106 C   0  0  0  0  0  0  0  0  0  0  0  0
    6.0377   -0.0431    0.5585 C   0  0  0  0  0  0  0  0  0  0  0  0
    2.5399   -0.0175   -0.0447 C   0  0  0  0  0  0  0  0  0  0  0  0
    6.7903   -0.9624   -0.4116 C   0  0  0  0  0  0  0  0  0  0  0  0
   -2.1740    0.4902   -0.1106 C   0  0  0  0  0  0  0  0  0  0  0  0
   -0.8892    0.8503   -0.2360 C   0  0  0  0  0  0  0  0  0  0  0  0
   -2.6349   -0.8591   -0.3666 C   0  0  0  0  0  0  0  0  0  0  0  0
   -3.1653    1.5287    0.3105 C   0  0  0  0  0  0  0  0  0  0  0  0
   -3.9291   -1.1988   -0.2356 C   0  0  0  0  0  0  0  0  0  0  0  0
   -4.5749    1.0702    0.4312 C   0  0  0  0  0  0  0  0  0  0  0  0
   -4.9101   -0.2037    0.1723 C   0  0  0  0  0  0  0  0  0  0  0  0
    6.3095    0.9988    0.3553 H   0  0  0  0  0  0  0  0  0  0  0  0
    6.3880   -0.2540    1.5763 H   0  0  0  0  0  0  0  0  0  0  0  0
    6.5796   -2.0155   -0.1963 H   0  0  0  0  0  0  0  0  0  0  0  0
    7.8695   -0.8030   -0.3224 H   0  0  0  0  0  0  0  0  0  0  0  0
    6.4987   -0.7650   -1.4484 H   0  0  0  0  0  0  0  0  0  0  0  0
    1.5804    1.2093   -1.4512 H   0  0  0  0  0  0  0  0  0  0  0  0
   -0.0174   -0.8991   -0.8273 H   0  0  0  0  0  0  0  0  0  0  0  0
   -0.5792    1.8722   -0.0360 H   0  0  0  0  0  0  0  0  0  0  0  0
   -1.9168   -1.6138   -0.6713 H   0  0  0  0  0  0  0  0  0  0  0  0
    4.8382    1.1106   -1.9187 H   0  0  0  0  0  0  0  0  0  0  0  0
    4.5454    2.2694   -0.8080 H   0  0  0  0  0  0  0  0  0  0  0  0
   -5.3160    1.8015    0.7344 H   0  0  0  0  0  0  0  0  0  0  0  0
   -6.2435   -1.5874    0.0517 H   0  0  0  0  0  0  0  0  0  0  0  0
  1 18  1  0  0  0  0
  2 20  1  0  0  0  0
  2 33  1  0  0  0  0
  3 17  2  0  0  0  0
  4  9  1  0  0  0  0
  4 10  1  0  0  0  0
  4 12  1  0  0  0  0
  5  7  1  0  0  0  0
  5 12  1  0  0  0  0
  5 26  1  0  0  0  0
  6  8  1  0  0  0  0
  6 10  2  0  0  0  0
  7 15  1  0  0  0  0
  7 27  1  0  0  0  0
  8 12  2  0  0  0  0
  9 30  1  0  0  0  0
  9 31  1  0  0  0  0
 10 11  1  0  0  0  0
 11 13  1  0  0  0  0
 11 21  1  0  0  0  0
 11 22  1  0  0  0  0
 13 23  1  0  0  0  0
 13 24  1  0  0  0  0
 13 25  1  0  0  0  0
 14 15  2  0  0  0  0
 14 16  1  0  0  0  0
 14 17  1  0  0  0  0
 15 28  1  0  0  0  0
 16 18  2  0  0  0  0
 16 29  1  0  0  0  0
 17 19  1  0  0  0  0
 18 20  1  0  0  0  0
 19 20  2  0  0  0  0
 19 32  1  0  0  0  0
M  END
> <PUBCHEM_COMPOUND_CID>
5721510

> <PUBCHEM_CONFORMER_RMSD>
0.6

> <PUBCHEM_CONFORMER_DIVERSEORDER>
1
60
65
8
59
61
43
105
75
98
39
111
46
86
7
74
30
106
38
95
116
35
94
83
32
62
109
110
104
50
66
18
26
9
76
71
69
108
84
58
113
115
101
80
67
53
68
107
64
2
79
112
114
88
100
77
15
99
54
11
27
63
96
72
14
25
19
49
33
87
48
81
51
57
47
90
56
97
89
103
82
40
36
55
70
12
24
102
34
5
85
42
22
44
3
29
31
45
73
28
13
52
41
21
6
37
91
92
20
78
16
4
10
17
23
93

> <PUBCHEM_MMFF94_PARTIAL_CHARGES>
27
1 -0.11
10 0.01
11 0.18
12 0.27
14 0.01
15 -0.05
16 -0.15
17 0.54
18 0.11
19 -0.14
2 -0.53
20 0.08
26 0.4
27 0.4
28 0.15
29 0.15
3 -0.57
30 0.36
31 0.36
32 0.15
33 0.45
4 0.45
5 -0.48
6 -0.34
7 -0.5
8 -0.34
9 -0.87

> <PUBCHEM_EFFECTIVE_ROTOR_COUNT>
4

> <PUBCHEM_PHARMACOPHORE_FEATURES>
10
1 1 hydrophobe
1 13 hydrophobe
1 2 donor
1 3 acceptor
1 5 donor
1 7 donor
1 9 donor
4 4 5 8 12 cation
5 4 6 8 10 12 rings
6 14 16 17 18 19 20 rings

> <PUBCHEM_HEAVY_ATOM_COUNT>
20

> <PUBCHEM_ATOM_DEF_STEREO_COUNT>
0

> <PUBCHEM_ATOM_UDEF_STEREO_COUNT>
0

> <PUBCHEM_BOND_DEF_STEREO_COUNT>
1

> <PUBCHEM_BOND_UDEF_STEREO_COUNT>
0

> <PUBCHEM_ISOTOPIC_ATOM_COUNT>
0

> <PUBCHEM_COMPONENT_COUNT>
1

> <PUBCHEM_CACTVS_TAUTO_COUNT>
24

> <PUBCHEM_CONFORMER_ID>
00574DA600000001

> <PUBCHEM_MMFF94_ENERGY>
34.1828

> <PUBCHEM_FEATURE_SELFOVERLAP>
52.379

> <PUBCHEM_SHAPE_FINGERPRINT>
10595046 47 18408323311094087568
10912923 1 18333453157432373068
11089746 13 10231750094345603230
11315181 36 18408041818621159009
11524674 6 16630525141796965767
11545043 162 17917989473526456154
12107183 9 17615402567623476536
12236239 1 18260551121231644660
12596602 18 18343580767994985592
12616971 3 18041002855473824917
13167823 11 18333448729183798067
13288520 33 18410292523798114173
13668630 136 16515687740628675315
14341114 176 18344144808643382984
14844126 61 18340767161016889691
14849402 71 18264487455477142664
17834072 33 18260548943815061876
17844677 252 18201725046286543208
17857418 61 18260260862930626171
18927931 339 18343303682543507575
19489759 90 17917991664144282785
200 152 17385719192727930101
20281389 69 10303820877716524294
20645477 70 15574984036456301322
21033648 29 16128082356686119840
21054139 6 18260543455158555266
21065198 48 18262233309618536832
21267235 1 18334864913087434362
220451 1 18261394416933530922
2297311 6 18130794442565356953
23035841 295 18410855447628661242
23402539 116 18410569613449893487
23557571 272 17846506893657287913
23559900 14 18269546307958997361
351380 3 18040431088073974466
4214541 1 18410291385015005029
5104073 3 18129949017472068849
559249 180 18333446526603962479
573450 72 18409444774199447729
67856867 119 18263363744964079276
7495541 125 18130786810719682744

> <PUBCHEM_SHAPE_MULTIPOLES>
375.91
16.66
2.11
0.9
14.96
0.47
0.01
4.95
-1.12
-3.63
0.11
0.73
0.02
-1.23

> <PUBCHEM_SHAPE_SELFOVERLAP>
778.042

> <PUBCHEM_SHAPE_VOLUME>
219

> <PUBCHEM_COORDINATE_TYPE>
2
5
10

$$$$
