16745608
  -OEChem-01171811563D

 57 59  0     1  0  0  0  0  0999 V2000
    2.7719   -1.2729    1.1687 O   0  0  0  0  0  0  0  0  0  0  0  0
    0.7289    0.1961    2.1425 O   0  0  0  0  0  0  0  0  0  0  0  0
    2.2772   -3.0759   -0.8143 O   0  0  0  0  0  0  0  0  0  0  0  0
   -6.3119    5.2047    0.3008 O   0  0  0  0  0  0  0  0  0  0  0  0
    2.2973    0.0499   -0.6608 O   0  0  0  0  0  0  0  0  0  0  0  0
    6.6274    2.5566   -1.4370 O   0  0  0  0  0  0  0  0  0  0  0  0
    7.0669    1.3351    0.4698 O   0  0  0  0  0  0  0  0  0  0  0  0
   -3.1137   -0.0921    0.3966 N   0  0  0  0  0  0  0  0  0  0  0  0
   -4.6559   -1.0204   -1.3380 C   0  0  0  0  0  0  0  0  0  0  0  0
   -5.0897   -2.2702   -2.0461 C   0  0  0  0  0  0  0  0  0  0  0  0
   -5.7294   -1.8849   -0.7444 C   0  0  0  0  0  0  0  0  0  0  0  0
   -3.3165   -0.9914   -0.6885 C   0  0  0  0  0  0  0  0  0  0  0  0
   -2.3105   -1.7960   -1.1143 C   0  0  0  0  0  0  0  0  0  0  0  0
   -4.1837    0.7868    0.8762 C   0  0  0  0  0  0  0  0  0  0  0  0
   -1.0023   -1.7484   -0.4575 C   0  0  0  0  0  0  0  0  0  0  0  0
   -1.8580   -0.0533    1.0166 C   0  0  0  0  0  0  0  0  0  0  0  0
   -0.8149   -0.8188    0.6515 C   0  0  0  0  0  0  0  0  0  0  0  0
   -4.1695    2.1206    0.1338 C   0  0  0  0  0  0  0  0  0  0  0  0
    1.4764   -1.8452    1.1016 C   0  0  1  0  0  0  0  0  0  0  0  0
    0.4863   -0.7238    1.3643 C   0  0  0  0  0  0  0  0  0  0  0  0
   -0.0049   -2.5316   -0.8987 C   0  0  0  0  0  0  0  0  0  0  0  0
    1.3349   -2.5157   -0.2559 C   0  0  0  0  0  0  0  0  0  0  0  0
   -5.2715    3.0693    0.6078 C   0  0  0  0  0  0  0  0  0  0  0  0
    1.3307   -2.8967    2.2027 C   0  0  0  0  0  0  0  0  0  0  0  0
   -5.2602    4.3757   -0.1742 C   0  0  0  0  0  0  0  0  0  0  0  0
    3.0603   -0.3259    0.2183 C   0  0  0  0  0  0  0  0  0  0  0  0
    4.4676    0.1880    0.4341 C   0  0  0  0  0  0  0  0  0  0  0  0
    4.8998    1.1931   -0.6312 C   0  0  0  0  0  0  0  0  0  0  0  0
    6.3214    1.6757   -0.4383 C   0  0  0  0  0  0  0  0  0  0  0  0
    7.9457    3.1117   -1.3862 C   0  0  0  0  0  0  0  0  0  0  0  0
   -4.9542   -0.0894   -1.8078 H   0  0  0  0  0  0  0  0  0  0  0  0
   -4.5037   -3.1800   -2.0326 H   0  0  0  0  0  0  0  0  0  0  0  0
   -5.6814   -2.1549   -2.9477 H   0  0  0  0  0  0  0  0  0  0  0  0
   -6.7471   -1.5145   -0.7726 H   0  0  0  0  0  0  0  0  0  0  0  0
   -5.4988   -2.4853    0.1275 H   0  0  0  0  0  0  0  0  0  0  0  0
   -2.4255   -2.4714   -1.9553 H   0  0  0  0  0  0  0  0  0  0  0  0
   -4.0589    0.9716    1.9517 H   0  0  0  0  0  0  0  0  0  0  0  0
   -5.1671    0.3123    0.7886 H   0  0  0  0  0  0  0  0  0  0  0  0
   -1.7991    0.6610    1.8308 H   0  0  0  0  0  0  0  0  0  0  0  0
   -3.1944    2.6051    0.2718 H   0  0  0  0  0  0  0  0  0  0  0  0
   -4.2766    1.9527   -0.9441 H   0  0  0  0  0  0  0  0  0  0  0  0
   -0.1255   -3.2004   -1.7454 H   0  0  0  0  0  0  0  0  0  0  0  0
   -6.2531    2.5911    0.5008 H   0  0  0  0  0  0  0  0  0  0  0  0
   -5.1551    3.2815    1.6778 H   0  0  0  0  0  0  0  0  0  0  0  0
    1.4904   -2.4529    3.1923 H   0  0  0  0  0  0  0  0  0  0  0  0
    0.3395   -3.3628    2.1935 H   0  0  0  0  0  0  0  0  0  0  0  0
    2.0805   -3.6880    2.0877 H   0  0  0  0  0  0  0  0  0  0  0  0
   -4.3111    4.9039   -0.0382 H   0  0  0  0  0  0  0  0  0  0  0  0
   -5.4169    4.1933   -1.2421 H   0  0  0  0  0  0  0  0  0  0  0  0
    4.5126    0.6553    1.4246 H   0  0  0  0  0  0  0  0  0  0  0  0
    5.1486   -0.6711    0.4248 H   0  0  0  0  0  0  0  0  0  0  0  0
   -6.2804    6.0287   -0.2146 H   0  0  0  0  0  0  0  0  0  0  0  0
    4.2352    2.0645   -0.6057 H   0  0  0  0  0  0  0  0  0  0  0  0
    4.8277    0.7309   -1.6226 H   0  0  0  0  0  0  0  0  0  0  0  0
    8.0833    3.6766   -0.4593 H   0  0  0  0  0  0  0  0  0  0  0  0
    8.6943    2.3180   -1.4706 H   0  0  0  0  0  0  0  0  0  0  0  0
    8.0604    3.7934   -2.2331 H   0  0  0  0  0  0  0  0  0  0  0  0
  1 19  1  0  0  0  0
  1 26  1  0  0  0  0
  2 20  2  0  0  0  0
  3 22  2  0  0  0  0
  4 25  1  0  0  0  0
  4 52  1  0  0  0  0
  5 26  2  0  0  0  0
  6 29  1  0  0  0  0
  6 30  1  0  0  0  0
  7 29  2  0  0  0  0
  8 12  1  0  0  0  0
  8 14  1  0  0  0  0
  8 16  1  0  0  0  0
  9 10  1  0  0  0  0
  9 11  1  0  0  0  0
  9 12  1  0  0  0  0
  9 31  1  0  0  0  0
 10 11  1  0  0  0  0
 10 32  1  0  0  0  0
 10 33  1  0  0  0  0
 11 34  1  0  0  0  0
 11 35  1  0  0  0  0
 12 13  2  0  0  0  0
 13 15  1  0  0  0  0
 13 36  1  0  0  0  0
 14 18  1  0  0  0  0
 14 37  1  0  0  0  0
 14 38  1  0  0  0  0
 15 17  1  0  0  0  0
 15 21  2  0  0  0  0
 16 17  2  0  0  0  0
 16 39  1  0  0  0  0
 17 20  1  0  0  0  0
 18 23  1  0  0  0  0
 18 40  1  0  0  0  0
 18 41  1  0  0  0  0
 19 20  1  0  0  0  0
 19 22  1  0  0  0  0
 19 24  1  0  0  0  0
 21 22  1  0  0  0  0
 21 42  1  0  0  0  0
 23 25  1  0  0  0  0
 23 43  1  0  0  0  0
 23 44  1  0  0  0  0
 24 45  1  0  0  0  0
 24 46  1  0  0  0  0
 24 47  1  0  0  0  0
 25 48  1  0  0  0  0
 25 49  1  0  0  0  0
 26 27  1  0  0  0  0
 27 28  1  0  0  0  0
 27 50  1  0  0  0  0
 27 51  1  0  0  0  0
 28 29  1  0  0  0  0
 28 53  1  0  0  0  0
 28 54  1  0  0  0  0
 30 55  1  0  0  0  0
 30 56  1  0  0  0  0
 30 57  1  0  0  0  0
M  END
> <PUBCHEM_COMPOUND_CID>
16745608

> <PUBCHEM_CONFORMER_RMSD>
1

> <PUBCHEM_CONFORMER_DIVERSEORDER>
2
66
58
31
23
45
13
5
78
121
92
120
86
11
116
25
98
53
85
106
115
74
64
35
117
110
79
108
97
113
99
103
49
89
54
119
3
63
33
104
82
17
50
112
83
19
52
72
39
9
32
87
38
15
77
20
75
36
65
68
94
42
28
90
21
40
22
57
62
37
24
46
73
1
84
101
122
43
6
81
109
67
102
93
18
48
8
27
107
100
91
59
55
111
12
76
71
105
118
114
61
60
10
96
51
4
41
14
69
95
80
7
88
44
34
29
70
30
47
16
56
26

> <PUBCHEM_MMFF94_PARTIAL_CHARGES>
35
1 -0.43
10 -0.2
11 -0.2
12 0.06
13 -0.15
14 0.37
16 -0.05
17 0.01
19 0.4
2 -0.57
20 0.49
21 -0.14
22 0.49
25 0.28
26 0.66
27 0.06
28 0.06
29 0.66
3 -0.57
30 0.28
31 0.1
32 0.1
33 0.1
34 0.1
35 0.1
36 0.15
39 0.15
4 -0.68
42 0.15
5 -0.57
52 0.4
6 -0.43
7 -0.57
8 -0.57
9 -0.06

> <PUBCHEM_EFFECTIVE_ROTOR_COUNT>
12

> <PUBCHEM_PHARMACOPHORE_FEATURES>
9
1 2 acceptor
1 3 acceptor
1 4 acceptor
1 4 donor
1 5 acceptor
1 7 acceptor
1 8 cation
6 15 17 19 20 21 22 rings
6 8 12 13 15 16 17 rings

> <PUBCHEM_HEAVY_ATOM_COUNT>
30

> <PUBCHEM_ATOM_DEF_STEREO_COUNT>
0

> <PUBCHEM_ATOM_UDEF_STEREO_COUNT>
1

> <PUBCHEM_BOND_DEF_STEREO_COUNT>
0

> <PUBCHEM_BOND_UDEF_STEREO_COUNT>
0

> <PUBCHEM_ISOTOPIC_ATOM_COUNT>
0

> <PUBCHEM_COMPONENT_COUNT>
1

> <PUBCHEM_CACTVS_TAUTO_COUNT>
1

> <PUBCHEM_CONFORMER_ID>
00FF848800000002

> <PUBCHEM_MMFF94_ENERGY>
68.3624

> <PUBCHEM_FEATURE_SELFOVERLAP>
45.697

> <PUBCHEM_SHAPE_FINGERPRINT>
10670039 82 18342735260464082136
11578080 2 18199470978756129549
12120059 20 11815598797649111300
12788726 201 18340753902663687707
12895837 130 18409454682721388589
13103583 49 8574440832645605558
13383665 225 18343586231646956477
13540713 5 18265597815622115643
13690498 29 17702938262266930415
13726171 33 18272940384400316409
15183329 4 18200599215457555150
17980427 26 17896875465765672731
19427546 20 18343298189554272029
23559900 14 17201360913720492938
249057 25 18262216872921529178
27425 322 18044095658056920705
2838139 119 18410014377352863016
393628 194 18041853925230983212
46194498 28 16629391639750080946
563151 97 18410573989457370966
57724786 102 18120087287002222909
6058803 2 18265310851667112291
633830 44 18189334559617104523
636775 72 18121784091892226540
6898599 12 18270959051815317413
7808743 9 18341044100328274409
7970288 3 9943535081149880860

> <PUBCHEM_SHAPE_MULTIPOLES>
571.32
17.54
5.04
1.65
20.79
6.48
0.23
23.02
-7.33
-6.24
-0.53
0.18
-0.81
-4.66

> <PUBCHEM_SHAPE_SELFOVERLAP>
1197.389

> <PUBCHEM_SHAPE_VOLUME>
320.9

> <PUBCHEM_COORDINATE_TYPE>
2
5
10

$$$$
